#------------------------------------------------------------------------------
#$Date: 2017-12-01 11:21:18 +0200 (Fri, 01 Dec 2017) $
#$Revision: 203860 $
#$URL: file:///home/coder/svn-repositories/cod/cif/1/54/83/1548348.cif $
#------------------------------------------------------------------------------
#
# This file is available in the Crystallography Open Database (COD),
# http://www.crystallography.net/
#
# All data on this site have been placed in the public domain by the
# contributors.
#
data_1548348
loop_
_publ_author_name
'Palatinus, Luk\'a\<s'
'Br\'azda, Petr'
'Boullay, Philippe'
'Perez, Olivier'
'Klementov\'a, Mariana'
'Petit, Sebastien'
'Eigner, V\'aclav'
'Zaarour, Moussa'
'Mintova, Svetlana'
_publ_section_title
;
 Hydrogen positions in single nanocrystals revealed by electron
 diffraction
;
_journal_issue                   6321
_journal_name_full               Science
_journal_page_first              166
_journal_page_last               169
_journal_paper_doi               10.1126/science.aak9652
_journal_volume                  355
_journal_year                    2017
_chemical_absolute_configuration .
_chemical_formula_analytical     'C8 H9 N1 O2'
_chemical_formula_moiety         'C8 H9 N1 O2'
_chemical_formula_structural     'C8 H9 N1 O2'
_chemical_formula_sum            'C8 H9 N O2'
_chemical_formula_weight         151.2
_chemical_name_common            paracetamol
_chemical_name_systematic        N-(4-hydroxyfenyl)ethanamid
_space_group_IT_number           61
_symmetry_cell_setting           orthorhombic
_symmetry_Int_Tables_number      61
_symmetry_space_group_name_Hall  '-P 2bc 2ac'
_symmetry_space_group_name_H-M   'P c a b'
_audit_creation_method           'Jana2006 Version : 14/11/2016'
_cell_angle_alpha                90
_cell_angle_beta                 90
_cell_angle_gamma                90
_cell_formula_units_Z            8
_cell_length_a                   7.232
_cell_length_b                   11.76
_cell_length_c                   17.16
_cell_measurement_temperature    100
_cell_volume                     1459.429
_computing_cell_refinement
;
Jana2006 (Petricek et al., 2014).
;
_computing_data_collection
;
PETS (Palatinus, L., 2011).
;
_computing_data_reduction
;
PETS (Palatinus, L., 2011).
;
_computing_structure_refinement
;
Jana2006 (Petricek et al., 2014). Dynamical refinement (Palatinus, L. et al.
 2015).
;
_computing_structure_solution
;
Superflip (Palatinus et al., 2007).
;
_diffrn_ambient_temperature      100
_diffrn_detector                 'CCD camera Olympus SIS Veleta'
_diffrn_detector_area_resol_mean 2048.2048
_diffrn_measured_fraction_theta_full 0.78
_diffrn_measured_fraction_theta_max 0.62
_diffrn_measurement_device       'Transmission electron microscope'
_diffrn_measurement_device_type  'Philips CM120'
_diffrn_measurement_method       PEDT
_diffrn_measurement_specimen_support 'Cu grid with carbon foil'
_diffrn_radiation_probe          electron
_diffrn_radiation_source         'Lanthanum hexaboride cathode'
_diffrn_radiation_type           electron
_diffrn_radiation_wavelength     0.0335
_diffrn_reflns_limit_h_max       7
_diffrn_reflns_limit_h_min       -6
_diffrn_reflns_limit_k_max       14
_diffrn_reflns_limit_k_min       -14
_diffrn_reflns_limit_l_max       20
_diffrn_reflns_limit_l_min       -20
_diffrn_reflns_number            14433
_diffrn_reflns_reduction_process 'data integration with PETS'
_diffrn_reflns_theta_full        0.8
_diffrn_reflns_theta_max         1.15
_diffrn_reflns_theta_min         0.11
_diffrn_source                   'electron microscope'
_diffrn_source_voltage           120
_exptl_absorpt_correction_type   none
_exptl_crystal_density_diffrn    1.376
_exptl_crystal_density_method    'not measured'
_exptl_crystal_description
;
platelet crystallized on carbon film of Cu TEM grid
;
_exptl_crystal_F_000             640
_exptl_crystal_size_max          0.001
_exptl_crystal_size_mid          0.0005
_exptl_crystal_size_min          0.00005
_refine_ls_extinction_method     none
_refine_ls_goodness_of_fit_gt    3.73
_refine_ls_goodness_of_fit_ref   2.63
_refine_ls_hydrogen_treatment    refall
_refine_ls_number_constraints    5
_refine_ls_number_parameters     128
_refine_ls_number_reflns         8105
_refine_ls_number_restraints     23
_refine_ls_R_factor_all          0.1845
_refine_ls_R_factor_gt           0.0906
_refine_ls_shift/su_max          0.0000
_refine_ls_shift/su_mean         0.0000
_refine_ls_structure_factor_coef F
_refine_ls_weighting_details     w=1/(\s^2^(F)+0.0001F^2^)
_refine_ls_weighting_scheme      sigma
_refine_ls_wR_factor_gt          0.0931
_refine_ls_wR_factor_ref         0.0976
_reflns_number_gt                3685
_reflns_number_total             8105
_reflns_threshold_expression     I>3\s(I)
_cod_data_source_file            aak9652-Palatinus-SM-data-S1.cif
_cod_data_source_block           I
_cod_original_cell_volume        1460
_cod_original_sg_symbol_Hall     '-P -2xac;-2yab;-2zbc'
_cod_original_formula_sum        'C8 H9 N1 O2'
_cod_database_code               1548348
loop_
_publ_contact_author_name
_publ_contact_author_address
_publ_contact_author_email
'Palatinus, Luk\'a\<s'
;
Institute of Physics CAS,
Na Slovance 2
182 21 Prague 8
Czech Republic
;
;
palat@fzu.cz
;
'Boullay, Philippe'
;
CRISMAT, Normandie Universit\'e, 
ENSICAEN, UNICAEN, CNRS UMR 6508, 
6 Bd Mar\'echal Juin, 
F-14050 Caen Cedex 4, 
France
;
;
philippe.boullay@ensicaen.fr
;
loop_
_space_group_symop_id
_space_group_symop_operation_xyz
1 x,y,z
2 -x,-y+1/2,z+1/2
3 -x+1/2,y+1/2,-z
4 x+1/2,-y,-z+1/2
5 -x,-y,-z
6 x,y+1/2,-z+1/2
7 x+1/2,-y+1/2,z
8 -x+1/2,y,z+1/2
loop_
_atom_site_label
_atom_site_type_symbol
_atom_site_fract_x
_atom_site_fract_y
_atom_site_fract_z
_atom_site_adp_type
_atom_site_U_iso_or_equiv
_atom_site_site_symmetry_multiplicity
_atom_site_occupancy
_atom_site_calc_flag
_atom_site_refinement_flags
_atom_site_disorder_assembly
_atom_site_disorder_group
O1 O 0.7634(7) 0.23811(15) 0.36882(10) Uiso 0.0106(5) 8 1 d . . .
O2 O 0.7306(8) 0.10499(15) -0.00259(10) Uiso 0.0125(5) 8 1 d . . .
N1 N 0.7898(7) -0.01803(17) 0.09645(10) Uiso 0.0091(6) 8 1 d . . .
C1 C 0.8657(7) 0.00993(19) 0.23025(12) Uiso 0.0079(7) 8 1 d . . .
C2 C 0.8617(6) 0.07222(18) 0.29990(14) Uiso 0.0103(7) 8 1 d . . .
C3 C 0.7763(7) 0.17748(16) 0.30127(11) Uiso 0.0042(6) 8 1 d . . .
C4 C 0.7050(7) 0.22411(18) 0.23316(10) Uiso 0.0055(7) 8 1 d . . .
C5 C 0.7140(7) 0.16256(16) 0.16301(10) Uiso 0.0042(6) 8 1 d . . .
C6 C 0.7887(7) 0.05372(17) 0.16157(11) Uiso 0.0048(6) 8 1 d . . .
C7 C 0.7627(8) 0.00877(17) 0.02019(10) Uiso 0.0051(6) 8 1 d . . .
C8 C 0.7687(8) -0.09179(19) -0.03401(13) Uiso 0.0153(7) 8 1 d . . .
H1 H 0.650(3) 0.1971(8) 0.1101(4) Uiso 0.039(2) 8 1 d . . .
H2 H 0.646(3) 0.3100(8) 0.2343(4) Uiso 0.039(2) 8 1 d . . .
H3 H 0.772(4) 0.1831(7) 0.4130(4) Uiso 0.012(3) 8 1 d . . .
H4 H 0.917(3) 0.0364(9) 0.3540(4) Uiso 0.039(2) 8 1 d . . .
H5 H 0.920(3) -0.0770(8) 0.2298(5) Uiso 0.039(2) 8 1 d . . .
H6 H 0.804(4) -0.1043(5) 0.1098(6) Uiso 0.017(3) 8 1 d . . .
H7 H 0.858(2) -0.1581(8) -0.0095(6) Uiso 0.078(4) 8 1 d . . .
H8 H 0.6292(12) -0.1257(9) -0.0400(8) Uiso 0.078(4) 8 1 d . . .
H9 H 0.820(2) -0.0659(7) -0.0915(5) Uiso 0.078(4) 8 1 d . . .
loop_
_atom_type_symbol
_atom_type_scat_source
C 'International Tables Vol C tables 4.3.1.1'
H 'International Tables Vol C tables 4.3.1.1'
N 'International Tables Vol C tables 4.3.1.1'
O 'International Tables Vol C tables 4.3.1.1'
loop_
_geom_angle_atom_site_label_1
_geom_angle_atom_site_label_2
_geom_angle_atom_site_label_3
_geom_angle_site_symmetry_1
_geom_angle_site_symmetry_2
_geom_angle_site_symmetry_3
_geom_angle
C3 O1 H3 . . . 107.6(5)
C6 N1 C7 . . . 128.9(2)
C6 N1 H6 . . . 114.2(6)
C7 N1 H6 . . . 116.7(6)
C2 C1 C6 . . . 121.1(3)
C2 C1 H5 . . . 120.1(5)
C6 C1 H5 . . . 118.6(6)
C1 C2 C3 . . . 119.4(3)
C1 C2 H4 . . . 120.9(6)
C3 C2 H4 . . . 119.6(6)
O1 C3 C2 . . . 120.8(2)
O1 C3 C4 . . . 118.9(2)
C2 C3 C4 . . . 120.3(2)
C3 C4 C5 . . . 120.0(3)
C3 C4 H2 . . . 119.5(5)
C5 C4 H2 . . . 120.5(5)
C4 C5 C6 . . . 120.5(2)
C4 C5 H1 . . . 120.0(6)
C6 C5 H1 . . . 119.3(5)
N1 C6 C1 . . . 116.6(2)
N1 C6 C5 . . . 124.9(3)
C1 C6 C5 . . . 118.56(19)
O2 C7 N1 . . . 123.42(19)
O2 C7 C8 . . . 122.44(19)
N1 C7 C8 . . . 114.10(19)
C7 C8 H7 . . . 109.9(6)
C7 C8 H8 . . . 108.6(7)
C7 C8 H9 . . . 110.3(5)
H7 C8 H8 . . . 108.7(9)
H7 C8 H9 . . . 110.0(11)
H8 C8 H9 . . . 109.3(11)
loop_
_geom_bond_atom_site_label_1
_geom_bond_atom_site_label_2
_geom_bond_site_symmetry_1
_geom_bond_site_symmetry_2
_geom_bond_distance
O1 C3 . . 1.364(3)
O1 H3 . . 0.999(8)
O2 C7 . . 1.219(3)
N1 C6 . . 1.400(3)
N1 C7 . . 1.360(3)
N1 H6 . . 1.045(7)
C1 C2 . . 1.402(3)
C1 C6 . . 1.402(4)
C1 H5 . . 1.095(13)
C2 C3 . . 1.383(4)
C2 H4 . . 1.096(11)
C3 C4 . . 1.390(4)
C4 C5 . . 1.406(3)
C4 H2 . . 1.098(13)
C5 C6 . . 1.389(4)
C5 H1 . . 1.096(11)
C7 C8 . . 1.505(3)
C8 H7 . . 1.095(12)
C8 H8 . . 1.090(11)
C8 H9 . . 1.099(10)
loop_
_geom_hbond_atom_site_label_D
_geom_hbond_atom_site_label_H
_geom_hbond_atom_site_label_A
_geom_hbond_site_symmetry_D
_geom_hbond_site_symmetry_H
_geom_hbond_site_symmetry_A
_geom_hbond_distance_DH
_geom_hbond_distance_HA
_geom_hbond_distance_DA
_geom_hbond_angle_DHA
O1 H3 O2 . . 8_655 0.999(8) 1.715(7) 2.706(2) 170.8(13)
N1 H6 O1 . . 6_545 1.045(7) 1.911(7) 2.935(3) 166(2)
loop_
_geom_torsion_atom_site_label_1
_geom_torsion_atom_site_label_2
_geom_torsion_atom_site_label_3
_geom_torsion_atom_site_label_4
_geom_torsion_site_symmetry_1
_geom_torsion_site_symmetry_2
_geom_torsion_site_symmetry_3
_geom_torsion_site_symmetry_4
_geom_torsion
H8 C8 C7 N1 . . . . 90.7(8)
C7 N1 C6 C5 . . . . 17.0(9)
loop_
_refln_index_h
_refln_index_k
_refln_index_l
_refln_intensity_calc
_refln_intensity_meas
_refln_intensity_sigma
_refln_scale_group_code
_refln_observed_status
-2 -5 -18 1.49 8.00 28.60 1 <
-1 -6 -17 1.64 -35.50 27.00 1 <
-2 -5 -17 16.04 -3.60 29.10 1 <
-3 -3 -17 5.88 -20.00 29.40 1 <
-4 -2 -17 158.32 131.70 29.80 1 o
-1 -6 -16 53.81 22.80 26.70 1 <
-2 -4 -16 31.47 40.40 29.50 1 <
-3 -3 -16 443.40 440.30 33.30 1 o
-4 -1 -16 128.18 72.40 30.00 1 <
1 -8 -15 0.41 28.60 27.00 1 <
-1 -5 -15 4.82 -1.50 28.20 1 <
-2 -4 -15 72.74 58.00 29.20 1 <
-3 -2 -15 13.69 47.80 29.80 1 <
-4 -1 -15 15.80 -44.80 29.30 1 <
-5 1 -15 87.45 51.80 29.60 1 <
2 -9 -14 4.40 0.20 26.40 1 <
1 -8 -14 139.04 226.30 28.00 1 o
-1 -5 -14 1121.30 1851.10 42.10 1 o
-3 -2 -14 190.98 282.20 32.60 1 o
-5 1 -14 17.38 2.60 29.30 1 <
-6 3 -14 45.94 -71.80 28.70 1 <
2 -9 -13 4.68 -15.80 26.50 1 <
1 -7 -13 5.35 -36.90 27.70 1 <
-2 -3 -13 117.06 206.30 30.30 1 o
-4 0 -13 11.79 2.00 30.10 1 <
-6 3 -13 3.59 11.30 28.40 1 <
3 -10 -12 88.76 68.70 27.30 1 <
2 -8 -12 7.41 14.20 26.90 1 <
1 -7 -12 293.88 386.10 31.70 1 o
-1 -4 -12 193.69 274.50 31.60 1 o
-3 -1 -12 185.49 208.90 33.30 1 o
-5 2 -12 131.14 112.40 31.10 1 o
3 -9 -11 13.86 12.60 26.80 1 <
2 -8 -11 10.72 13.20 27.60 1 <
-2 -2 -11 37.70 85.40 29.90 1 <
-4 1 -11 22.13 13.60 31.40 1 <
-6 4 -11 9.87 62.80 28.80 1 <
4 -10 -10 207.76 73.30 27.70 1 <
3 -9 -10 16.91 34.80 26.70 1 <
1 -6 -10 391.15 511.00 33.20 1 o
-1 -3 -10 713.10 979.60 39.20 1 o
-5 3 -10 10.66 -38.50 30.40 1 <
4 -10 -9 17.90 -10.10 27.40 1 <
2 -7 -9 27.06 68.40 29.00 1 <
-2 -1 -9 640.10 802.60 37.50 1 o
-4 2 -9 23.77 95.30 32.00 1 <
-6 5 -9 212.29 90.10 31.10 1 <
4 -9 -8 10.91 -5.40 27.10 1 <
3 -8 -8 500.51 456.50 33.00 1 o
1 -5 -8 112.36 83.70 30.60 1 <
-3 1 -8 514.43 385.30 35.00 1 o
-5 4 -8 161.09 157.90 32.20 1 o
5 -10 -7 43.81 65.80 26.60 1 <
4 -9 -7 0.90 42.00 26.90 1 <
2 -6 -7 418.87 493.30 34.40 1 o
-4 3 -7 5.26 8.50 31.80 1 <
-6 6 -7 13.51 -0.60 29.80 1 <
5 -10 -6 45.10 24.20 26.80 1 <
3 -7 -6 30.55 59.90 29.80 1 <
-5 5 -6 9.60 -23.60 31.00 1 <
4 -8 -5 27.29 -5.70 27.80 1 <
-3 2 -5 178.99 133.50 37.50 1 o
-5 5 -5 114.88 166.80 31.80 1 o
-6 7 -5 9.01 31.00 29.00 1 <
5 -9 -4 68.32 34.90 26.90 1 <
3 -6 -4 236.50 326.10 33.00 1 o
-2 1 -4 83.36 -13.10 43.10 1 <
-4 4 -4 1876.20 1595.30 43.90 1 o
-5 6 -4 59.65 -22.00 31.60 1 <
-6 7 -4 6.54 -17.70 29.70 1 <
6 -10 -3 6.54 -27.00 27.30 1 <
4 -7 -3 181.15 56.00 29.40 1 <
-3 3 -3 1946.30 1752.60 49.90 1 o
-5 6 -3 78.01 62.50 31.20 1 <
-6 8 -3 126.13 24.20 29.70 1 <
5 -8 -2 21.72 -4.90 27.20 1 <
-2 2 -2 15366.00 14192.50 105.00 1 o
-4 5 -2 44.82 50.40 30.80 1 <
-6 8 -2 112.32 16.30 29.60 1 <
6 -9 -1 2.37 -16.00 26.20 1 <
4 -6 -1 36.21 47.70 28.50 1 <
1 -2 -1 1962.60 1582.70 66.50 1 o
-1 1 -1 232.53 543.70 67.50 1 o
-3 4 -1 1980.80 1883.00 49.70 1 o
-5 7 -1 9.59 59.90 28.40 1 <
-6 9 -1 5.99 54.00 28.30 1 <
-4 6 0 128.39 93.10 29.20 1 o
6 -8 1 15.31 9.30 26.80 1 <
3 -4 1 2073.40 1750.30 49.60 1 o
1 -1 1 242.21 884.30 68.80 1 o
-1 2 1 1368.50 1780.80 66.30 1 o
-3 5 1 224.71 112.40 32.30 1 o
-5 8 1 14.29 30.10 27.40 1 <
-6 10 1 12.18 -4.70 28.70 1 <
5 -6 2 43.30 -25.20 28.60 1 <
4 -5 2 36.53 57.40 30.70 1 <
2 -2 2 14409.00 12850.20 99.80 1 o
-2 4 2 1450.90 743.50 44.50 1 o
-4 7 2 95.21 22.40 28.80 1 <
-6 10 2 143.00 42.80 28.70 1 <
6 -7 3 114.93 73.10 27.10 1 <
5 -6 3 60.69 153.50 29.30 1 o
3 -3 3 1512.20 1553.10 47.90 1 o
-1 3 3 918.43 993.70 50.60 1 o
-3 6 3 55.76 39.00 30.70 1 <
-5 9 3 5.30 21.90 26.90 1 <
4 -4 4 1581.10 1512.50 42.80 1 o
2 -1 4 61.84 162.50 43.20 1 o
-2 5 4 192.29 265.30 35.00 1 o
-4 8 4 12.28 -10.60 28.50 1 <
6 -6 5 318.71 154.70 27.80 1 o
5 -5 5 89.83 197.10 29.10 1 o
3 -2 5 423.75 296.40 37.10 1 o
1 1 5 559.41 391.40 46.00 1 o
-1 4 5 220.18 329.40 40.20 1 o
-3 7 5 96.10 56.50 30.60 1 <
-5 10 5 57.68 -15.30 26.90 1 <
7 -7 6 35.62 -9.50 26.40 1 <
6 -6 6 16.84 17.10 27.00 1 <
4 -3 6 19.58 107.40 30.30 1 o
2 0 6 6106.30 6495.50 74.50 1 o
-2 6 6 36.01 126.70 31.50 1 o
-4 9 6 30.26 41.30 27.70 1 <
6 -5 7 34.60 15.30 26.60 1 <
5 -4 7 49.81 133.40 29.30 1 o
3 -1 7 42.68 155.00 33.30 1 o
1 2 7 290.09 403.40 41.10 1 o
-1 5 7 167.74 198.00 33.50 1 o
-3 8 7 84.18 37.90 28.90 1 <
7 -6 8 2.34 3.10 26.10 1 <
6 -5 8 6.88 -39.00 27.20 1 <
4 -2 8 163.03 165.40 30.60 1 o
2 1 8 958.81 1093.90 42.30 1 o
-2 7 8 961.40 1095.80 39.00 1 o
-4 10 8 5.47 33.00 26.50 1 <
6 -4 9 44.63 39.80 26.90 1 <
5 -3 9 6.41 -19.30 28.00 1 <
1 3 9 201.99 299.90 34.70 1 o
-1 6 9 16.90 -19.80 30.20 1 <
-3 9 9 8.16 -18.30 26.80 1 <
6 -4 10 6.49 19.10 26.20 1 <
4 -1 10 87.87 102.70 28.70 1 o
2 2 10 557.49 820.10 38.10 1 o
-2 8 10 42.44 50.40 28.00 1 <
5 -2 11 73.72 50.60 27.10 1 <
3 1 11 42.22 48.00 30.00 1 <
1 4 11 13.28 38.20 30.80 1 <
-1 7 11 13.86 14.80 28.50 1 <
-3 10 11 49.30 15.40 26.50 1 <
6 -3 12 3.25 43.30 26.50 1 <
4 0 12 48.27 114.20 28.50 1 o
2 3 12 26.10 112.90 29.80 1 o
-2 9 12 19.15 38.60 27.20 1 <
5 -1 13 52.21 35.20 27.20 1 <
3 2 13 24.90 28.70 28.50 1 <
1 5 13 30.59 71.80 28.60 1 <
-1 8 13 1.88 29.00 27.50 1 <
6 -2 14 15.06 5.40 26.50 1 <
4 1 14 145.96 118.10 28.70 1 o
2 4 14 53.30 92.10 28.80 1 o
3 3 15 178.10 145.40 29.70 1 o
1 6 15 3.14 60.40 26.70 1 <
-1 9 15 2.91 23.40 26.50 1 <
4 2 16 150.62 37.00 27.50 1 <
2 5 16 11.25 92.30 27.10 1 o
3 4 17 29.93 40.30 26.80 1 <
1 7 17 0.77 15.30 26.50 1 <
-2 -5 -18 1.38 17.80 28.60 2 <
-3 -3 -18 26.23 98.60 28.80 2 o
-1 -6 -17 1.92 -15.90 26.70 2 <
-3 -3 -17 5.41 -44.20 29.30 2 <
-4 -1 -17 25.61 -29.40 28.80 2 <
-2 -4 -16 19.66 39.50 29.10 2 <
-4 -1 -16 184.81 145.90 30.20 2 o
-5 1 -16 37.77 20.70 28.80 2 <
1 -8 -15 1.84 -17.80 26.90 2 <
-1 -5 -15 5.89 4.80 28.90 2 <
-3 -2 -15 5.54 55.20 29.30 2 <
-5 1 -15 101.21 1.50 29.10 2 <
2 -9 -14 6.88 -33.10 26.70 2 <
1 -8 -14 127.16 88.70 28.30 2 o
-1 -5 -14 1890.70 2479.70 45.60 2 o
-2 -3 -14 77.00 50.50 29.30 2 <
-4 0 -14 5.04 33.20 29.10 2 <
-6 3 -14 43.74 93.50 27.90 2 o
2 -9 -13 56.73 -30.20 26.40 2 <
-3 -1 -13 148.60 134.30 32.40 2 o
-5 2 -13 9.73 43.50 29.10 2 <
-6 4 -13 47.77 28.80 28.50 2 <
3 -10 -12 46.78 38.60 27.10 2 <
1 -7 -12 306.57 529.90 31.60 2 o
-1 -4 -12 207.55 344.40 31.50 2 o
-4 1 -12 22.51 83.40 29.90 2 <
-6 4 -12 72.84 25.80 29.00 2 <
2 -8 -11 20.28 7.50 27.30 2 <
-2 -2 -11 66.67 14.30 29.70 2 <
-5 3 -11 224.14 211.40 32.30 2 o
3 -9 -10 33.47 33.70 26.70 2 <
1 -6 -10 677.14 502.80 32.70 2 o
-1 -3 -10 825.26 1119.20 39.20 2 o
-4 2 -10 61.77 27.10 31.20 2 <
-6 5 -10 38.33 -0.60 29.30 2 <
4 -10 -9 11.58 -3.90 26.50 2 <
2 -7 -9 32.97 35.30 29.10 2 <
-2 -1 -9 619.69 750.20 36.20 2 o
-4 2 -9 14.71 101.10 31.60 2 o
-5 4 -9 394.45 345.30 32.90 2 o
3 -8 -8 525.87 461.90 32.80 2 o
1 -5 -8 92.94 168.70 31.20 2 o
-1 -2 -8 146.51 46.90 34.70 2 <
-3 1 -8 493.54 422.20 34.50 2 o
-6 6 -8 119.38 95.40 30.40 2 o
4 -9 -7 6.84 -27.10 26.90 2 <
2 -6 -7 721.92 609.80 34.90 2 o
-2 0 -7 70.96 20.60 35.10 2 <
-4 3 -7 8.17 39.60 31.80 2 <
-5 5 -7 199.98 241.00 32.60 2 o
5 -10 -6 61.17 23.60 26.60 2 <
4 -9 -6 15.54 14.20 27.00 2 <
-3 2 -6 2052.70 2189.10 47.80 2 o
-5 5 -6 8.11 47.10 30.20 2 <
-6 7 -6 149.27 72.50 29.60 2 <
5 -10 -5 112.72 77.20 27.40 2 <
3 -7 -5 105.36 134.50 30.20 2 o
-4 4 -5 168.16 127.90 31.70 2 o
-5 6 -5 602.89 839.00 36.50 2 o
5 -9 -4 72.11 35.00 26.50 2 <
4 -8 -4 8.85 23.30 27.10 2 <
2 -5 -4 298.66 230.40 33.70 2 o
-3 3 -4 587.85 715.80 39.90 2 o
-5 6 -4 70.88 50.00 31.40 2 <
-6 8 -4 17.72 34.90 28.80 2 <
6 -10 -3 17.97 17.90 26.50 2 <
5 -9 -3 9.45 42.70 26.50 2 <
3 -6 -3 27.34 -32.10 29.40 2 <
1 -3 -3 1110.70 1043.60 49.20 2 o
-4 5 -3 336.36 362.10 32.60 2 o
-6 8 -3 196.36 94.50 29.50 2 o
6 -10 -2 78.34 12.10 26.30 2 <
4 -7 -2 32.94 75.30 27.20 2 <
2 -4 -2 592.82 250.30 43.50 2 o
-3 4 -2 1663.20 2303.00 49.70 2 o
-5 7 -2 26.95 67.10 29.80 2 <
-6 9 -2 18.63 32.70 28.80 2 <
5 -8 -1 4.74 -0.40 27.00 2 <
3 -5 -1 71.10 77.00 31.20 2 <
1 -2 -1 1862.70 1454.70 64.90 2 o
-4 6 -1 16.46 50.40 28.40 2 <
-6 9 -1 7.61 -24.30 28.00 2 <
4 -6 0 46.45 55.30 28.80 2 <
-5 8 0 16.49 -57.30 29.40 2 <
-6 10 0 24.44 8.70 28.50 2 <
5 -7 1 4.44 9.60 26.70 2 <
3 -4 1 1821.10 2040.50 48.80 2 o
-1 2 1 2271.80 2126.90 66.90 2 o
-4 7 1 50.39 68.60 28.60 2 <
-6 10 1 14.70 15.90 28.30 2 <
6 -8 2 84.87 7.10 26.40 2 <
4 -5 2 52.73 -31.10 30.60 2 <
-2 4 2 698.92 667.90 41.60 2 o
-5 9 2 41.84 41.90 27.30 2 <
5 -6 3 125.18 125.30 28.60 2 o
-1 3 3 654.07 800.20 49.10 2 o
-3 6 3 37.01 -31.30 31.10 2 <
-4 8 3 212.47 142.80 29.60 2 o
6 -7 4 10.99 28.70 26.20 2 <
4 -4 4 2925.80 1766.90 44.50 2 o
-2 5 4 243.59 194.00 33.10 2 o
-5 10 4 13.18 5.00 26.50 2 <
6 -7 5 17.09 -59.10 26.70 2 <
5 -5 5 112.35 128.40 28.80 2 o
-1 4 5 174.65 222.80 38.20 2 o
-3 7 5 136.38 140.60 30.70 2 o
-4 9 5 107.65 148.80 28.30 2 o
6 -6 6 24.30 -25.60 26.80 2 <
5 -5 6 8.69 -5.00 27.80 2 <
-2 6 6 32.91 96.50 29.90 2 o
6 -6 7 4.42 -16.30 26.70 2 <
4 -3 7 4.47 -13.40 29.50 2 <
-1 5 7 195.57 224.60 32.50 2 o
-3 8 7 68.92 60.30 29.40 2 <
-4 10 7 27.97 -12.80 26.90 2 <
6 -5 8 14.19 -23.80 26.80 2 <
5 -4 8 248.75 111.50 29.20 2 o
3 -1 8 523.23 538.70 35.90 2 o
-2 7 8 1106.80 1104.90 38.30 2 o
-3 9 8 473.57 540.60 31.40 2 o
-4 10 8 4.90 25.50 26.20 2 <
6 -5 9 252.45 114.30 27.80 2 o
4 -2 9 15.45 7.70 28.40 2 <
2 1 9 873.48 863.00 38.80 2 o
-1 6 9 34.91 45.70 29.00 2 <
-3 9 9 7.06 -37.50 27.20 2 <
6 -4 10 18.17 18.80 26.20 2 <
5 -3 10 10.89 24.50 27.30 2 <
-2 8 10 28.27 73.30 28.00 2 <
-3 10 10 24.27 1.00 26.80 2 <
6 -4 11 11.42 10.60 26.30 2 <
4 -1 11 43.51 62.10 27.60 2 <
2 2 11 64.78 54.00 30.40 2 <
-1 7 11 10.69 -26.70 28.80 2 <
-3 10 11 42.06 45.10 26.10 2 <
5 -2 12 157.05 109.00 28.10 2 o
3 1 12 265.66 255.60 30.30 2 o
1 4 12 222.74 197.30 30.50 2 o
-2 9 12 11.91 10.00 27.00 2 <
6 -3 13 19.14 16.00 26.20 2 <
4 0 13 4.35 -12.60 27.40 2 <
2 3 13 219.85 244.10 30.30 2 o
1 5 13 40.74 19.30 28.40 2 <
-1 8 13 21.75 20.00 27.00 2 <
5 -1 14 12.13 58.00 26.40 2 <
3 2 14 223.85 210.00 28.80 2 o
1 5 14 1258.20 1228.40 37.50 2 o
4 1 15 14.17 -23.40 27.10 2 <
2 4 15 21.10 60.40 27.40 2 <
1 6 15 14.07 47.80 26.60 2 <
-1 9 15 10.11 21.80 26.30 2 <
3 3 16 500.97 190.80 28.90 2 o
2 5 16 14.67 25.30 26.60 2 <
1 6 16 27.61 38.80 26.70 2 <
4 2 17 140.76 39.00 27.10 2 <
3 4 17 78.18 29.30 27.30 2 <
2 5 17 8.30 -2.30 26.20 2 <
1 7 17 1.48 -32.80 26.20 2 <
3 4 18 65.50 20.90 26.80 2 <
-1 -6 -18 23.64 42.80 26.50 3 <
-2 -5 -18 21.14 -39.10 28.50 3 <
-3 -3 -18 13.44 32.30 28.60 3 <
-4 -1 -18 30.67 6.80 28.60 3 <
-1 -6 -17 0.85 -46.90 26.80 3 <
-2 -4 -17 46.53 -3.70 28.80 3 <
-4 -1 -17 16.75 -36.50 28.80 3 <
0 -7 -16 23.63 18.40 26.80 3 <
-2 -4 -16 60.53 -11.10 29.00 3 <
-3 -2 -16 88.19 41.40 29.90 3 <
-5 1 -16 85.54 38.30 29.10 3 <
1 -8 -15 2.88 31.00 26.80 3 <
-1 -5 -15 3.61 46.10 28.10 3 <
-3 -2 -15 40.96 44.40 29.90 3 <
-4 0 -15 16.92 68.40 29.10 3 <
-5 2 -15 8.42 -40.70 28.20 3 <
1 -8 -14 131.36 194.80 27.90 3 o
-2 -3 -14 94.92 101.10 29.50 3 o
-5 2 -14 57.62 27.90 29.80 3 <
2 -9 -13 9.59 5.00 26.20 3 <
-1 -4 -13 5.29 -29.80 27.80 3 <
-3 -1 -13 268.31 137.90 32.70 3 o
-4 1 -13 34.29 -27.30 30.50 3 <
-6 4 -13 77.01 6.10 28.40 3 <
3 -10 -12 86.38 15.30 26.90 3 <
1 -7 -12 454.65 467.10 30.90 3 o
-1 -4 -12 319.23 341.30 32.00 3 o
-2 -2 -12 852.44 765.70 35.50 3 o
-4 1 -12 43.24 47.30 30.30 3 <
-5 3 -12 508.37 431.30 33.90 3 o
-6 5 -12 90.33 102.90 29.00 3 o
3 -10 -11 48.23 19.30 27.10 3 <
2 -8 -11 22.09 -8.40 27.50 3 <
-4 2 -11 208.85 142.10 31.60 3 o
-6 5 -11 138.50 160.30 29.40 3 o
3 -9 -10 43.85 20.40 26.70 3 <
2 -8 -10 41.59 62.50 27.90 3 <
1 -6 -10 738.19 574.40 34.00 3 o
-1 -3 -10 1029.50 1243.10 40.90 3 o
-4 2 -10 86.94 49.30 31.60 3 <
-5 4 -10 22.63 44.90 31.00 3 <
-6 6 -10 75.45 125.80 28.70 3 o
3 -9 -9 13.68 2.20 27.80 3 <
-3 1 -9 151.67 66.20 31.30 3 <
-6 6 -9 199.87 106.70 30.00 3 o
4 -10 -8 6.49 102.60 27.20 3 o
2 -7 -8 1493.30 1535.90 41.70 3 o
-1 -2 -8 163.00 115.90 35.20 3 o
-4 3 -8 570.16 436.00 35.90 3 o
-5 5 -8 718.03 845.80 37.00 3 o
3 -8 -7 69.48 10.30 29.60 3 <
1 -5 -7 368.01 405.30 33.40 3 o
-2 0 -7 109.70 44.50 36.40 3 <
-3 2 -7 969.89 947.50 40.80 3 o
-5 5 -7 300.16 330.90 32.80 3 o
-6 7 -7 272.31 158.00 31.10 3 o
4 -9 -6 2.35 35.30 27.10 3 <
2 -6 -6 11.97 22.40 30.40 3 <
-1 -1 -6 6558.90 5432.50 69.30 3 o
-4 4 -6 69.02 47.70 32.00 3 <
-5 6 -6 17.70 107.90 30.70 3 o
5 -10 -5 130.60 80.80 27.20 3 <
4 -9 -5 362.39 230.70 29.70 3 o
3 -7 -5 141.63 97.00 29.80 3 o
1 -4 -5 231.64 128.90 37.40 3 o
-2 1 -5 1906.80 1880.50 52.70 3 o
-5 6 -5 446.70 396.70 34.20 3 o
-6 8 -5 36.69 70.70 29.10 3 <
5 -10 -4 13.07 -24.10 26.70 3 <
4 -8 -4 14.49 0.10 27.70 3 <
2 -5 -4 266.06 276.80 34.00 3 o
-4 5 -4 136.56 112.80 32.00 3 o
-5 7 -4 791.75 647.50 35.50 3 o
4 -8 -3 194.10 251.30 29.70 3 o
1 -3 -3 1126.90 1027.30 49.90 3 o
-2 2 -3 5313.20 5215.40 72.70 3 o
-5 7 -3 213.50 186.90 31.50 3 o
-6 9 -3 102.05 67.70 29.20 3 <
5 -9 -2 104.75 86.10 27.20 3 o
3 -6 -2 844.13 1032.80 37.80 3 o
-3 4 -2 1490.20 1876.00 48.00 3 o
-4 6 -2 106.09 55.90 29.20 3 <
6 -10 -1 7.38 17.00 26.10 3 <
4 -7 -1 79.58 33.50 28.50 3 <
-2 3 -1 971.98 998.80 47.50 3 o
-5 8 -1 33.66 71.10 28.90 3 <
-6 10 -1 23.77 7.70 28.40 3 <
5 -8 0 11.05 57.40 27.00 3 <
-6 10 0 13.33 9.10 28.80 3 <
6 -9 1 3.58 62.30 25.80 3 <
4 -6 1 19.68 55.30 28.70 3 <
-2 4 1 2031.50 1957.80 50.90 3 o
-5 9 1 18.01 85.30 27.40 3 o
6 -9 2 63.72 7.10 26.40 3 <
5 -7 2 26.00 52.20 26.80 3 <
3 -4 2 1546.90 1844.90 46.80 3 o
-3 6 2 625.63 641.30 35.90 3 o
-4 8 2 588.23 599.90 32.40 3 o
6 -8 3 189.02 98.90 27.30 3 o
4 -5 3 361.14 427.00 33.40 3 o
-1 3 3 1609.00 1237.80 51.30 3 o
-4 8 3 310.68 193.40 30.30 3 o
-5 10 3 14.76 55.50 26.30 3 <
6 -8 4 10.22 7.40 26.30 3 <
5 -6 4 73.57 52.20 28.10 3 <
3 -3 4 595.38 653.20 39.40 3 o
-3 7 4 806.12 1099.10 38.60 3 o
-4 9 4 4.12 29.00 27.50 3 <
-5 11 4 18.73 31.60 25.80 3 <
6 -7 5 22.12 -10.00 26.60 3 <
5 -6 5 710.35 575.80 32.40 3 o
4 -4 5 237.83 173.20 30.60 3 o
2 -1 5 2141.40 2321.20 54.10 3 o
-1 4 5 238.94 257.50 40.00 3 o
-2 6 5 2402.40 3015.20 52.00 3 o
-4 9 5 351.86 195.10 28.70 3 o
-5 11 5 34.80 8.50 26.10 3 <
6 -7 6 110.98 52.40 26.90 3 <
5 -5 6 14.65 -26.00 27.30 3 <
3 -2 6 2400.60 2575.00 51.70 3 o
-3 8 6 453.95 502.50 32.20 3 o
-4 10 6 48.33 5.90 27.30 3 <
6 -6 7 9.13 12.90 26.40 3 <
5 -5 7 294.05 273.30 30.80 3 o
4 -3 7 29.41 33.60 28.90 3 <
2 0 7 92.36 157.40 35.90 3 o
-1 5 7 169.27 169.90 33.60 3 o
-2 7 7 45.27 68.50 30.50 3 <
-4 10 7 31.76 -9.00 27.10 3 <
6 -6 8 173.85 94.60 27.20 3 o
5 -4 8 304.23 173.40 29.70 3 o
3 -1 8 502.76 583.50 35.20 3 o
-3 9 8 425.34 336.30 30.40 3 o
-4 11 8 50.32 -2.70 26.80 3 <
5 -4 9 529.58 503.20 32.60 3 o
4 -2 9 9.62 23.40 28.50 3 <
2 1 9 881.15 780.90 38.00 3 o
-1 6 9 5.60 -52.30 30.10 3 <
-2 8 9 220.50 143.60 30.00 3 o
6 -5 10 37.48 17.50 26.70 3 <
4 -2 10 138.79 -32.00 28.50 3 <
1 3 10 1182.50 1319.00 41.20 3 o
-2 8 10 56.83 24.10 27.50 3 <
-3 10 10 29.50 9.40 26.10 3 <
5 -3 11 181.96 199.40 29.00 3 o
4 -1 11 22.06 4.00 27.70 3 <
2 2 11 94.24 73.70 30.30 3 <
-1 7 11 9.12 -14.70 28.50 3 <
-2 9 11 26.41 -9.60 26.90 3 <
6 -4 12 45.35 19.80 26.30 3 <
4 -1 12 31.55 -1.90 27.10 3 <
3 1 12 301.25 264.30 30.30 3 o
1 4 12 226.72 240.80 30.70 3 o
-2 9 12 28.43 0.60 26.90 3 <
5 -2 13 49.09 -20.90 26.50 3 <
4 0 13 18.86 25.30 26.90 3 <
2 3 13 238.88 270.00 30.70 3 o
-1 8 13 5.64 33.60 27.40 3 <
-2 10 13 24.08 32.50 26.10 3 <
6 -3 14 33.60 17.10 26.40 3 <
4 0 14 22.54 -9.90 27.10 3 <
3 2 14 313.98 190.20 29.10 3 o
1 5 14 1557.90 1631.20 40.40 3 o
-1 9 14 34.11 40.90 26.20 3 <
5 -1 15 135.74 43.70 26.80 3 <
4 1 15 7.99 36.70 26.70 3 <
2 4 15 62.55 68.80 27.60 3 <
1 6 15 8.92 -33.10 27.40 3 <
-1 9 15 5.49 -23.50 26.30 3 <
4 1 16 177.82 44.10 27.00 3 <
3 3 16 541.41 325.50 29.80 3 o
1 6 16 36.39 15.20 27.10 3 <
4 2 17 175.59 68.90 27.00 3 <
2 5 17 11.60 -44.00 26.50 3 <
1 7 17 3.26 30.20 26.00 3 <
3 4 18 77.72 58.60 26.90 3 <
-1 -6 -18 49.54 -65.30 27.30 4 <
-3 -3 -18 13.82 -7.60 29.40 4 <
-4 -1 -18 36.63 25.50 28.40 4 <
-1 -6 -17 5.64 -17.70 26.70 4 <
-2 -4 -17 30.27 -36.50 28.90 4 <
-3 -2 -17 92.65 132.40 29.40 4 o
0 -7 -16 17.14 -29.60 26.80 4 <
-2 -4 -16 59.76 47.80 29.10 4 <
-3 -2 -16 69.83 87.90 29.90 4 <
-4 0 -16 18.22 14.90 29.10 4 <
-5 2 -16 47.04 53.00 28.10 4 <
1 -8 -15 14.13 -16.00 27.00 4 <
-1 -5 -15 3.43 -1.20 27.70 4 <
-2 -3 -15 182.39 247.60 30.50 4 o
-4 0 -15 42.30 63.10 29.20 4 <
-5 2 -15 2.44 20.20 28.80 4 <
1 -8 -14 162.06 135.10 28.00 4 o
-2 -3 -14 99.17 66.90 29.30 4 <
-3 -1 -14 390.93 340.60 33.60 4 o
-4 1 -14 401.59 297.70 32.30 4 o
2 -9 -13 16.85 29.00 26.20 4 <
-1 -4 -13 9.45 -29.70 27.80 4 <
-4 1 -13 49.46 104.00 30.00 4 o
-5 3 -13 50.73 -5.70 28.90 4 <
-6 5 -13 16.21 55.30 27.90 4 <
3 -10 -12 70.97 66.60 26.90 4 <
2 -9 -12 26.51 24.80 26.70 4 <
1 -7 -12 422.08 428.10 30.90 4 o
-2 -2 -12 676.41 787.10 34.80 4 o
-6 5 -12 93.44 33.00 28.90 4 <
3 -10 -11 34.46 -20.80 27.10 4 <
2 -8 -11 11.31 56.80 27.40 4 <
-4 2 -11 106.20 121.20 31.30 4 o
-5 4 -11 358.67 310.50 33.10 4 o
-6 6 -11 414.29 400.60 31.90 4 o
2 -8 -10 24.74 39.50 27.50 4 <
1 -6 -10 616.90 915.90 36.00 4 o
-1 -3 -10 1587.70 1779.40 43.00 4 o
-2 -1 -10 72.02 -10.60 30.50 4 <
-5 4 -10 20.57 105.70 30.80 4 o
-6 6 -10 49.11 57.70 28.80 4 <
3 -9 -9 5.36 33.50 27.50 4 <
1 -6 -9 43.59 -15.90 28.40 4 <
-3 1 -9 211.32 120.50 32.30 4 o
-4 3 -9 19.78 -5.70 31.10 4 <
-5 5 -9 24.13 -20.70 30.50 4 <
4 -10 -8 5.12 96.50 27.20 4 o
2 -7 -8 1379.40 1288.10 39.90 4 o
-1 -2 -8 141.91 120.40 35.30 4 o
-2 0 -8 3651.50 3608.30 56.00 4 o
-5 5 -8 714.54 693.00 35.80 4 o
-6 7 -8 69.23 62.10 28.30 4 <
4 -10 -7 9.76 -47.40 26.70 4 <
3 -8 -7 80.22 105.40 28.70 4 o
1 -5 -7 195.28 188.80 32.50 4 o
-3 2 -7 668.70 672.40 36.50 4 o
-4 4 -7 54.41 22.10 31.50 4 <
-5 6 -7 346.59 352.00 32.60 4 o
3 -8 -6 496.00 468.50 32.60 4 o
2 -6 -6 13.95 112.50 30.80 4 o
-1 -1 -6 4030.20 4188.90 63.00 4 o
-5 6 -6 17.25 109.60 30.10 4 o
-6 8 -6 65.26 -15.10 28.70 4 <
4 -9 -5 205.45 82.90 28.10 4 <
1 -4 -5 160.28 187.40 37.70 4 o
-3 3 -5 211.15 211.60 33.40 4 o
-4 5 -5 496.54 450.00 35.10 4 o
5 -10 -4 12.10 44.50 26.70 4 <
3 -7 -4 956.20 953.50 36.80 4 o
-4 5 -4 310.57 232.10 31.80 4 o
-5 7 -4 558.20 417.00 33.50 4 o
-6 9 -4 7.49 -11.80 28.50 4 <
5 -10 -3 28.24 60.70 26.60 4 <
4 -8 -3 175.40 209.30 28.70 4 o
1 -3 -3 1255.00 1165.60 51.30 4 o
-2 2 -3 5726.40 5562.10 70.80 4 o
-3 4 -3 286.03 342.10 36.10 4 o
5 -9 -2 120.67 34.70 27.50 4 <
3 -6 -2 538.05 449.90 33.00 4 o
-4 6 -2 119.40 26.20 28.80 4 <
-5 8 -2 11.74 -62.00 29.20 4 <
-6 10 -2 124.04 63.90 29.20 4 <
5 -9 -1 20.78 -43.80 26.60 4 <
4 -7 -1 18.68 76.70 28.10 4 <
2 -4 -1 1513.40 1487.60 49.20 4 o
-2 3 -1 729.06 615.60 44.70 4 o
-3 5 -1 172.05 88.90 32.00 4 <
-6 10 -1 29.80 30.40 28.40 4 <
6 -10 0 13.31 8.40 26.20 4 <
5 -8 1 12.85 13.60 26.70 4 <
2 -3 1 653.29 640.10 44.30 4 o
-2 4 1 1430.30 1432.80 47.40 4 o
-3 6 1 293.44 383.60 32.20 4 o
6 -9 2 41.13 17.90 26.50 4 <
4 -6 2 127.06 -17.10 29.30 4 <
3 -4 2 1847.20 2060.20 48.10 4 o
-4 8 2 419.28 356.10 31.00 4 o
-5 10 2 89.72 24.30 27.20 4 <
5 -7 3 154.72 74.10 27.80 4 <
2 -2 3 4634.90 4523.30 67.40 4 o
-2 5 3 28.93 138.00 32.80 4 o
-3 7 3 79.10 97.70 29.70 4 o
6 -8 4 2.45 -25.50 26.10 4 <
4 -5 4 130.69 157.60 30.50 4 o
-3 7 4 1496.40 1181.10 39.40 4 o
-4 9 4 12.37 6.40 27.30 4 <
-5 11 4 12.24 -28.30 26.10 4 <
6 -8 5 15.61 29.00 25.90 4 <
5 -6 5 287.00 372.90 30.60 4 o
2 -1 5 1903.40 1845.10 51.20 4 o
-1 4 5 284.37 281.00 39.70 4 o
-2 6 5 1087.80 1243.30 41.30 4 o
-3 8 5 234.33 147.10 29.90 4 o
6 -7 6 106.17 34.90 26.90 4 <
4 -4 6 60.27 21.60 29.10 4 <
1 1 6 5520.50 5730.00 70.20 4 o
-3 8 6 516.88 544.20 33.20 4 o
-4 10 6 24.03 -26.50 26.50 4 <
6 -7 7 248.12 95.20 27.20 4 o
5 -5 7 325.44 231.90 30.10 4 o
3 -2 7 913.87 1153.10 40.80 4 o
2 0 7 74.12 16.80 36.20 4 <
-1 5 7 197.25 220.30 33.90 4 o
-2 7 7 34.79 33.30 30.80 4 <
-3 9 7 224.47 135.30 28.70 4 o
-4 11 7 9.32 -13.10 26.30 4 <
6 -6 8 190.62 105.00 27.30 4 o
4 -3 8 368.87 366.60 32.80 4 o
1 2 8 146.70 18.50 36.10 4 <
-3 9 8 410.56 330.50 30.90 4 o
-4 11 8 31.42 -17.00 26.80 4 <
6 -6 9 154.67 69.50 26.70 4 <
5 -4 9 463.73 405.40 31.60 4 o
3 -1 9 213.61 144.10 31.20 4 o
2 1 9 818.47 740.60 37.50 4 o
-1 6 9 6.29 -54.40 29.10 4 <
-2 8 9 151.09 87.50 29.50 4 <
-3 10 9 120.44 47.80 27.40 4 <
6 -5 10 46.12 8.30 27.00 4 <
5 -4 10 42.00 54.90 26.90 4 <
4 -2 10 73.27 27.80 28.00 4 <
1 3 10 1199.30 1430.40 41.00 4 o
-3 10 10 62.97 16.60 26.20 4 <
6 -5 11 104.92 15.40 26.80 4 <
5 -3 11 336.61 209.30 29.50 4 o
2 2 11 24.55 76.90 29.90 4 <
-1 7 11 33.98 27.10 28.10 4 <
-2 9 11 25.33 19.80 26.60 4 <
6 -4 12 72.39 -7.80 26.40 4 <
5 -3 12 583.95 393.80 30.60 4 o
4 -1 12 26.95 32.50 27.10 4 <
1 4 12 199.52 224.60 30.60 4 o
6 -4 13 77.34 30.40 26.40 4 <
5 -2 13 23.68 29.00 26.20 4 <
3 1 13 160.83 132.10 29.20 4 o
2 3 13 328.99 266.00 31.00 4 o
-1 8 13 6.71 54.00 27.00 4 <
-2 10 13 8.39 -21.10 26.30 4 <
6 -3 14 58.05 44.90 26.60 4 <
5 -2 14 86.72 67.10 26.80 4 <
4 0 14 15.70 -1.90 27.10 4 <
1 5 14 1122.30 1260.30 37.50 4 o
-1 9 14 28.38 58.60 26.60 4 <
5 -1 15 93.34 24.90 26.80 4 <
3 2 15 21.97 61.90 27.30 4 <
2 4 15 60.36 -21.90 27.30 4 <
-1 9 15 7.89 -22.10 26.10 4 <
5 -1 16 63.01 53.90 26.30 4 <
4 1 16 138.84 65.50 26.90 4 <
2 4 16 49.41 100.30 26.90 4 o
1 6 16 29.19 72.40 26.90 4 <
3 3 17 4.95 47.60 26.80 4 <
2 5 17 43.65 -49.70 26.50 4 <
1 7 17 4.49 -5.80 26.10 4 <
3 4 18 160.43 56.50 27.10 4 <
2 5 18 4.66 0.70 25.90 4 <
-1 -6 -18 18.13 -9.10 26.50 5 <
-2 -4 -18 136.63 162.60 29.80 5 o
-4 -1 -18 56.85 95.80 28.20 5 o
-1 -6 -17 3.01 44.90 26.30 5 <
-2 -4 -17 14.28 -22.60 28.80 5 <
-3 -2 -17 51.65 35.20 29.10 5 <
-4 0 -17 89.69 44.20 28.90 5 <
0 -7 -16 17.29 -25.20 26.90 5 <
-1 -5 -16 67.07 58.40 27.40 5 <
-3 -2 -16 90.28 122.70 29.50 5 o
-4 0 -16 13.79 -1.10 28.80 5 <
-5 2 -16 23.24 52.90 28.00 5 <
-1 -5 -15 4.37 64.50 26.90 5 <
-2 -3 -15 134.93 170.70 29.70 5 o
-3 -1 -15 710.99 599.60 35.30 5 o
-4 1 -15 26.25 94.70 29.20 5 o
1 -8 -14 160.19 112.20 28.10 5 o
-3 -1 -14 404.14 371.40 33.10 5 o
-4 1 -14 209.62 118.30 30.90 5 o
-5 3 -14 57.15 29.80 28.80 5 <
-1 -4 -13 16.85 -50.10 27.80 5 <
-2 -2 -13 167.26 99.30 30.20 5 o
-6 5 -13 13.57 -57.40 28.10 5 <
2 -9 -12 9.02 31.70 26.50 5 <
1 -7 -12 355.14 426.60 31.00 5 o
-2 -2 -12 842.44 833.00 35.80 5 o
-4 2 -12 312.47 260.70 32.20 5 o
-5 4 -12 132.92 70.20 30.90 5 <
-6 6 -12 12.06 55.80 27.90 5 <
3 -10 -11 48.07 69.40 26.60 5 <
1 -7 -11 16.31 -47.10 27.90 5 <
-1 -3 -11 19.54 92.30 30.00 5 o
-5 4 -11 581.85 491.10 33.70 5 o
-6 6 -11 384.96 289.00 31.00 5 o
3 -10 -10 16.04 -64.40 26.80 5 <
2 -8 -10 27.51 76.70 27.80 5 <
-2 -1 -10 65.15 120.20 30.50 5 o
-3 1 -10 481.06 410.20 33.80 5 o
-4 3 -10 89.67 116.50 31.20 5 o
-5 5 -10 43.98 31.00 29.00 5 <
-6 7 -10 9.78 28.80 28.20 5 <
1 -6 -9 11.67 42.40 28.50 5 <
-5 5 -9 19.25 28.90 29.90 5 <
-6 7 -9 24.50 58.20 28.20 5 <
4 -11 -8 41.19 49.70 26.30 5 <
3 -9 -8 323.77 183.50 29.40 5 o
2 -7 -8 1581.80 1793.40 42.80 5 o
-1 -2 -8 92.38 166.70 34.60 5 o
-2 0 -8 1986.40 1871.30 45.70 5 o
-3 2 -8 428.77 364.90 33.50 5 o
-4 4 -8 131.97 38.60 31.50 5 <
-5 6 -8 32.79 -24.50 29.60 5 <
-6 8 -8 109.37 2.40 28.20 5 <
4 -10 -7 14.16 34.50 26.40 5 <
2 -7 -7 28.62 -68.00 29.90 5 <
1 -5 -7 203.68 277.30 32.20 5 o
-4 4 -7 38.28 -2.10 31.50 5 <
-5 6 -7 172.50 284.00 31.90 5 o
-6 8 -7 17.30 16.10 28.50 5 <
4 -10 -6 25.06 44.30 26.40 5 <
3 -8 -6 447.83 479.80 32.00 5 o
-1 -1 -6 3682.70 3512.20 58.30 5 o
-2 1 -6 1485.90 1425.40 46.80 5 o
-3 3 -6 181.11 388.10 33.80 5 o
-4 5 -6 1355.40 1447.80 41.10 5 o
-5 7 -6 217.34 125.70 30.00 5 o
-6 9 -6 46.97 58.10 28.00 5 <
5 -11 -5 37.30 -14.40 26.20 5 <
2 -6 -5 1268.80 1198.30 40.50 5 o
1 -4 -5 208.84 225.90 36.10 5 o
-4 5 -5 321.78 469.50 35.20 5 o
-5 7 -5 116.56 78.80 30.60 5 <
-6 9 -5 38.92 14.70 28.20 5 <
5 -11 -4 11.75 -43.20 26.30 5 <
4 -9 -4 6.89 58.70 26.90 5 <
3 -7 -4 1182.30 1370.40 39.70 5 o
5 -10 -3 34.45 -16.20 26.30 5 <
3 -7 -3 59.44 52.70 29.40 5 <
2 -5 -3 12.79 53.70 32.20 5 <
-4 6 -3 13.15 -15.50 28.50 5 <
-5 8 -3 279.40 224.90 31.40 5 o
-6 10 -3 23.65 21.90 28.10 5 <
5 -10 -2 54.87 -58.00 26.50 5 <
4 -8 -2 424.16 326.60 30.20 5 o
5 -9 -1 18.31 33.40 26.50 5 <
3 -6 -1 267.24 278.30 31.80 5 o
2 -4 -1 979.87 1329.70 46.80 5 o
-3 5 -1 97.89 219.40 33.10 5 o
-4 7 -1 59.92 13.70 28.30 5 <
-5 9 -1 9.19 -16.40 28.40 5 <
6 -10 1 5.94 -19.40 26.10 5 <
3 -5 1 134.89 4.50 30.40 5 <
-3 6 1 279.13 367.50 32.80 5 o
-4 8 1 27.22 30.50 27.40 5 <
-5 10 1 88.03 74.70 28.40 5 <
6 -10 2 150.82 -19.90 26.40 5 <
5 -8 2 3.26 12.40 26.90 5 <
4 -6 2 169.91 94.40 28.50 5 o
-5 11 2 16.45 10.50 26.80 5 <
6 -9 3 130.68 93.40 26.40 5 o
4 -6 3 20.14 50.20 28.00 5 <
3 -4 3 223.60 284.10 34.20 5 o
-3 7 3 66.66 64.20 29.40 5 <
-4 9 3 25.79 23.00 27.40 5 <
-5 11 3 40.06 10.40 26.20 5 <
6 -9 4 7.53 34.40 25.60 5 <
5 -7 4 456.49 284.90 29.90 5 o
6 -8 5 4.96 -12.20 25.90 5 <
4 -5 5 306.26 301.90 31.40 5 o
3 -3 5 188.87 174.70 32.40 5 o
-2 6 5 1700.60 1903.30 45.10 5 o
-3 8 5 121.33 137.40 29.20 5 o
-4 10 5 10.67 53.00 26.90 5 <
6 -8 6 47.09 8.70 26.00 5 <
5 -6 6 4.27 64.60 27.20 5 <
1 1 6 3464.50 3319.60 58.00 5 o
-4 11 6 30.96 48.50 26.90 5 <
6 -7 7 270.94 134.00 27.60 5 o
4 -4 7 82.43 5.30 28.00 5 <
3 -2 7 660.55 72.40 38.40 5 <
-2 7 7 32.51 53.20 29.90 5 <
-3 9 7 144.94 53.70 28.20 5 <
-4 11 7 12.25 46.80 26.10 5 <
6 -7 8 46.71 -70.10 26.10 5 <
5 -5 8 543.52 504.60 31.10 5 o
2 0 8 2826.50 2704.90 51.10 5 o
1 2 8 99.17 162.30 35.50 5 o
-1 6 8 567.18 533.70 33.30 5 o
-2 8 8 1611.90 1873.70 42.50 5 o
-3 10 8 306.81 194.40 28.70 5 o
5 -5 9 28.37 67.90 26.70 5 <
4 -3 9 26.17 34.80 27.80 5 <
3 -1 9 90.10 43.40 30.10 5 <
-2 8 9 162.76 118.60 29.40 5 o
-3 10 9 113.74 32.50 27.60 5 <
6 -6 10 51.24 1.20 26.30 5 <
5 -4 10 16.16 41.00 26.90 5 <
2 1 10 67.56 117.80 30.50 5 o
1 3 10 1179.40 1158.60 38.40 5 o
-1 7 10 323.54 332.20 31.30 5 o
-2 9 10 104.39 89.50 27.30 5 o
-3 11 10 4.88 -17.30 25.80 5 <
5 -4 11 438.42 273.80 29.70 5 o
4 -2 11 81.12 3.90 28.00 5 <
-1 7 11 16.64 -37.40 27.90 5 <
-2 9 11 49.23 -0.90 26.30 5 <
6 -5 12 51.36 11.40 26.20 5 <
5 -3 12 449.11 267.00 29.90 5 o
2 2 12 672.79 705.10 34.30 5 o
1 4 12 317.47 276.50 30.10 5 o
-1 8 12 51.56 67.50 27.70 5 <
-2 10 12 21.61 55.10 26.80 5 <
5 -3 13 51.88 8.30 26.50 5 <
4 -1 13 25.53 -58.90 27.60 5 <
3 1 13 191.75 111.90 28.50 5 o
-1 8 13 2.44 -13.50 26.10 5 <
-2 10 13 10.35 38.80 25.70 5 <
5 -2 14 67.50 42.50 26.10 5 <
2 3 14 76.19 124.60 28.70 5 o
1 5 14 1149.00 1147.10 36.70 5 o
-1 9 14 62.20 57.80 26.70 5 <
5 -2 15 11.48 34.50 26.00 5 <
4 0 15 15.26 -32.10 26.10 5 <
3 2 15 28.87 32.70 27.00 5 <
2 4 15 73.63 35.40 27.50 5 <
-1 9 15 3.90 10.50 25.80 5 <
5 -1 16 59.77 32.20 26.40 5 <
2 4 16 87.59 79.90 26.90 5 <
1 6 16 57.57 67.10 26.80 5 <
4 1 17 20.31 5.90 26.00 5 <
3 3 17 29.27 0.10 26.40 5 <
2 5 17 12.22 39.80 26.20 5 <
1 7 17 6.67 35.30 25.60 5 <
3 3 18 44.74 0.30 26.20 5 <
2 5 18 5.44 15.70 26.20 5 <
-1 -6 -18 30.20 -54.70 27.00 6 <
-2 -4 -18 109.36 114.40 29.40 6 o
-3 -2 -18 81.90 123.60 29.40 6 o
-4 0 -18 15.15 -34.90 28.20 6 <
-2 -4 -17 56.38 -14.70 28.30 6 <
-3 -2 -17 61.42 24.20 28.70 6 <
-4 0 -17 39.54 -2.40 28.50 6 <
0 -7 -16 12.36 44.00 26.40 6 <
-1 -5 -16 65.51 5.20 26.90 6 <
-2 -3 -16 65.05 94.60 29.40 6 o
-3 -1 -16 30.97 -7.60 29.20 6 <
-4 1 -16 135.20 74.80 29.00 6 <
-5 3 -16 189.49 136.80 28.80 6 o
-1 -5 -15 56.25 11.10 26.60 6 <
-2 -3 -15 162.10 68.40 29.60 6 <
-3 -1 -15 409.34 466.70 33.70 6 o
-4 1 -15 16.42 73.40 28.60 6 <
-5 3 -15 33.01 21.60 27.60 6 <
1 -8 -14 131.55 131.40 27.40 6 o
1 -8 -13 9.27 30.40 26.10 6 <
-1 -4 -13 14.28 -61.10 27.40 6 <
-2 -2 -13 203.02 124.10 29.30 6 o
-4 2 -13 459.56 197.80 32.30 6 o
-5 4 -13 109.71 22.80 29.10 6 <
2 -9 -12 6.85 39.10 26.50 6 <
1 -7 -12 463.71 484.70 32.00 6 o
1 -7 -11 15.63 14.40 27.40 6 <
-1 -3 -11 26.45 48.40 29.10 6 <
-2 -1 -11 22.16 -59.30 29.10 6 <
-3 1 -11 60.85 81.10 31.50 6 <
-4 3 -11 234.67 238.20 31.90 6 o
-5 5 -11 275.96 159.60 30.60 6 o
3 -10 -10 35.41 -41.60 26.70 6 <
2 -8 -10 25.51 36.70 27.70 6 <
-4 3 -10 87.95 164.40 31.30 6 o
-5 5 -10 31.71 59.70 29.60 6 <
-6 7 -10 14.33 20.00 28.10 6 <
2 -8 -9 176.27 133.30 28.80 6 o
1 -6 -9 8.76 17.40 28.20 6 <
-1 -2 -9 454.71 118.80 32.50 6 o
-4 4 -9 39.93 -20.20 30.60 6 <
-5 6 -9 20.42 9.70 28.90 6 <
-6 8 -9 10.88 -12.80 27.80 6 <
4 -11 -8 23.92 -13.70 26.30 6 <
3 -9 -8 321.29 389.30 30.20 6 o
-3 2 -8 556.13 617.10 35.30 6 o
-4 4 -8 187.62 100.50 31.80 6 o
-5 6 -8 20.88 39.50 28.70 6 <
-6 8 -8 48.13 -26.90 28.80 6 <
3 -9 -7 146.89 92.30 27.80 6 o
2 -7 -7 23.36 -25.90 29.20 6 <
1 -5 -7 153.32 156.30 31.80 6 o
-5 7 -7 83.78 38.20 29.70 6 <
-6 9 -7 10.05 15.00 28.00 6 <
4 -10 -6 22.44 8.30 26.70 6 <
-2 1 -6 1297.00 1668.70 48.10 6 o
-3 3 -6 327.81 425.10 35.00 6 o
-4 5 -6 1115.40 1349.00 41.10 6 o
-5 7 -6 108.87 56.40 30.50 6 <
-6 9 -6 50.35 58.60 28.60 6 <
4 -10 -5 48.69 39.60 26.70 6 <
3 -8 -5 122.07 106.10 29.20 6 o
2 -6 -5 973.61 1231.60 40.60 6 o
-5 8 -5 102.67 28.30 29.90 6 <
5 -11 -4 9.06 -33.20 26.40 6 <
4 -9 -4 26.54 44.60 27.10 6 <
-2 2 -4 1915.60 1809.00 49.70 6 o
-3 4 -4 192.47 165.60 32.50 6 o
-4 6 -4 114.31 56.60 31.60 6 <
-5 8 -4 22.79 32.80 29.40 6 <
4 -9 -3 29.17 -56.50 27.00 6 <
3 -7 -3 22.81 99.50 28.90 6 o
2 -5 -3 29.47 125.80 34.20 6 o
5 -10 -2 36.19 -9.00 26.50 6 <
-1 1 -2 9568.40 13029.50 103.30 6 o
-2 3 -2 4886.10 4784.60 64.70 6 o
-3 5 -2 354.11 349.90 33.60 6 o
-4 7 -2 215.97 192.20 30.10 6 o
-5 9 -2 94.78 44.00 29.00 6 <
5 -10 -1 98.78 94.00 27.10 6 o
4 -8 -1 11.55 33.10 27.70 6 <
3 -6 -1 208.51 302.80 32.00 6 o
-1 2 0 35019.00 28425.60 138.50 6 o
-2 4 0 6157.10 6130.00 70.30 6 o
-3 6 0 100.57 154.30 31.80 6 o
-4 8 0 157.27 212.30 28.90 6 o
-5 10 0 23.61 -26.10 28.20 6 <
5 -9 1 18.25 -3.70 26.40 6 <
4 -7 1 36.72 42.20 27.70 6 <
3 -5 1 128.85 61.50 32.10 6 <
6 -10 2 111.71 -57.00 26.30 6 <
2 -3 2 5589.90 5213.40 66.40 6 o
1 -1 2 10497.00 12230.50 101.70 6 o
-1 3 2 6521.40 7204.00 78.50 6 o
-2 5 2 1392.00 1164.80 41.80 6 o
-3 7 2 180.19 179.60 30.10 6 o
-4 9 2 155.68 101.90 28.00 6 o
-5 11 2 13.69 -9.40 26.70 6 <
6 -10 3 37.67 -26.10 26.10 6 <
5 -8 3 182.98 88.90 27.30 6 o
4 -6 3 10.22 25.20 28.40 6 <
6 -9 4 3.19 -35.80 26.10 6 <
3 -4 4 211.47 302.20 33.10 6 o
2 -2 4 1867.20 1727.70 49.40 6 o
-1 4 4 1215.40 1053.50 45.00 6 o
-2 6 4 198.02 205.00 32.30 6 o
-3 8 4 93.88 75.80 28.60 6 <
-4 10 4 268.51 240.90 28.80 6 o
6 -9 5 49.66 1.70 25.90 6 <
5 -7 5 123.21 97.80 27.80 6 o
4 -5 5 424.37 374.60 32.70 6 o
6 -8 6 32.81 26.90 26.00 6 <
3 -3 6 216.35 340.90 33.50 6 o
2 -1 6 1210.00 1245.70 45.60 6 o
1 1 6 3945.00 3109.40 56.90 6 o
-1 5 6 3391.10 3361.90 53.10 6 o
-2 7 6 1478.20 1451.80 40.30 6 o
-3 9 6 217.76 187.10 28.90 6 o
-4 11 6 88.68 125.80 27.00 6 o
6 -8 7 15.48 -2.20 26.00 6 <
5 -6 7 125.28 130.20 27.90 6 o
4 -4 7 29.39 24.00 28.60 6 <
4 -4 8 155.26 55.70 28.50 6 <
3 -2 8 295.04 340.80 32.70 6 o
2 0 8 1579.40 1546.50 43.70 6 o
1 2 8 287.68 222.70 34.00 6 o
-1 6 8 178.33 276.80 31.30 6 o
-2 8 8 1400.50 1629.20 40.60 6 o
-3 10 8 184.26 116.30 28.20 6 o
6 -7 9 13.56 -0.80 26.00 6 <
5 -5 9 8.67 58.70 26.70 6 <
-2 8 9 232.97 135.10 29.70 6 o
-3 10 9 111.37 89.70 28.10 6 o
5 -5 10 22.14 16.50 26.40 6 <
4 -3 10 118.01 -3.80 28.20 6 <
3 -1 10 186.61 308.00 31.00 6 o
2 1 10 191.66 115.60 29.90 6 o
1 3 10 1461.00 1387.20 40.50 6 o
-1 7 10 173.13 245.60 29.20 6 o
-2 9 10 30.74 79.20 26.80 6 <
-3 11 10 18.68 13.30 25.80 6 <
6 -6 11 230.29 140.80 27.20 6 o
5 -4 11 282.58 190.20 28.60 6 o
-1 7 11 16.72 -22.40 27.40 6 <
-2 9 11 22.71 -18.10 26.60 6 <
5 -4 12 165.71 118.60 27.60 6 o
4 -2 12 269.25 241.90 29.60 6 o
2 2 12 688.00 566.20 33.30 6 o
1 4 12 250.23 238.30 29.60 6 o
-1 8 12 48.89 4.40 27.10 6 <
-2 10 12 7.91 41.00 26.40 6 <
6 -5 13 7.52 24.70 25.70 6 <
5 -3 13 49.85 0.60 26.90 6 <
-1 8 13 4.06 -3.00 26.60 6 <
-2 10 13 13.55 37.10 26.10 6 <
5 -3 14 50.24 20.60 26.20 6 <
4 -1 14 131.85 156.40 27.50 6 o
3 1 14 405.34 207.80 29.80 6 o
2 3 14 100.79 148.20 28.80 6 o
1 5 14 910.19 1116.20 36.20 6 o
-1 9 14 18.07 -21.30 26.00 6 <
5 -2 15 5.77 -79.80 26.30 6 <
4 0 15 12.93 -88.70 26.60 6 <
-1 9 15 9.77 12.20 26.00 6 <
5 -2 16 34.19 12.10 25.60 6 <
4 0 16 43.65 16.30 26.10 6 <
3 2 16 47.16 65.80 26.50 6 <
2 4 16 36.20 9.90 27.00 6 <
1 6 16 34.38 6.50 26.90 6 <
4 1 17 9.64 -33.50 25.90 6 <
4 1 18 25.14 27.20 26.10 6 <
3 3 18 25.79 22.60 26.40 6 <
2 5 18 9.61 16.20 26.00 6 <
-2 -4 -19 9.39 20.90 28.20 7 <
-3 -2 -19 39.23 40.50 29.00 7 <
-1 -6 -18 15.20 -34.30 26.80 7 <
-2 -4 -18 85.41 77.30 29.50 7 <
-3 -2 -18 118.30 73.90 28.80 7 <
-4 0 -18 21.80 22.50 27.80 7 <
-4 1 -17 8.39 -39.00 28.70 7 <
0 -7 -16 24.65 -11.20 26.40 7 <
-1 -5 -16 77.45 28.90 26.80 7 <
-2 -3 -16 80.04 -7.90 29.80 7 <
-3 -1 -16 35.58 53.40 29.50 7 <
-4 1 -16 179.97 23.30 29.20 7 <
-5 3 -16 162.96 39.60 28.20 7 <
1 -9 -15 2.92 19.20 26.40 7 <
-1 -5 -15 29.26 -0.80 26.90 7 <
-5 4 -15 13.76 38.20 28.20 7 <
1 -8 -14 132.50 92.00 27.60 7 o
-1 -4 -14 376.07 392.40 30.70 7 o
-2 -2 -14 294.10 369.50 32.20 7 o
-4 2 -14 176.65 188.40 30.60 7 o
-5 4 -14 8.82 32.00 28.40 7 <
2 -10 -13 15.74 15.60 26.60 7 <
1 -8 -13 3.25 -2.20 26.90 7 <
-1 -4 -13 7.82 23.80 27.60 7 <
-2 -2 -13 173.10 63.50 29.50 7 <
2 -9 -12 14.51 -14.50 26.90 7 <
-3 1 -12 231.38 209.00 32.20 7 o
-4 3 -12 56.83 17.40 30.60 7 <
-5 5 -12 137.34 145.60 29.80 7 o
2 -9 -11 23.19 55.50 26.40 7 <
1 -7 -11 38.86 6.90 27.70 7 <
-1 -3 -11 26.28 48.40 29.30 7 <
-2 -1 -11 19.57 14.90 28.70 7 <
-3 1 -11 213.55 148.30 32.00 7 o
-4 3 -11 347.53 218.30 32.00 7 o
3 -10 -10 61.67 22.50 26.90 7 <
-4 4 -10 18.67 -27.00 29.50 7 <
-5 6 -10 75.68 -9.70 29.50 7 <
3 -10 -9 99.43 7.00 27.40 7 <
2 -8 -9 124.80 102.20 29.00 7 o
1 -6 -9 16.95 -29.80 28.30 7 <
-1 -2 -9 174.55 54.00 31.90 7 <
-2 0 -9 650.75 713.80 36.10 7 o
-3 2 -9 242.10 160.80 31.90 7 o
-4 4 -9 66.43 -11.30 30.50 7 <
-5 6 -9 21.84 69.30 29.40 7 <
4 -11 -8 37.05 -19.40 26.80 7 <
-5 7 -8 326.19 269.30 32.00 7 o
4 -11 -7 9.81 16.50 26.50 7 <
3 -9 -7 111.48 9.00 28.50 7 <
2 -7 -7 47.67 -1.70 29.90 7 <
1 -5 -7 257.88 317.30 34.00 7 o
-2 1 -7 284.19 224.50 37.10 7 o
-3 3 -7 83.28 149.80 30.70 7 o
-4 5 -7 369.40 219.40 33.40 7 o
-5 7 -7 44.92 -31.80 30.00 7 <
-5 8 -6 76.66 20.30 29.30 7 <
4 -10 -5 29.80 19.50 27.00 7 <
3 -8 -5 168.81 162.40 29.70 7 o
-3 4 -5 146.76 187.80 31.90 7 o
-4 6 -5 1173.30 1070.40 39.50 7 o
-5 8 -5 89.13 43.80 29.40 7 <
4 -10 -4 547.63 172.20 28.10 7 o
3 -8 -4 176.42 100.30 29.20 7 o
2 -6 -4 194.37 188.00 35.40 7 o
1 -4 -4 1140.00 1459.80 47.00 7 o
-5 9 -4 77.89 74.20 28.90 7 <
5 -11 -3 53.49 24.00 26.60 7 <
4 -9 -3 47.65 37.10 27.00 7 <
-3 5 -3 163.30 234.90 33.20 7 o
-4 7 -3 130.48 112.70 29.90 7 o
-5 9 -3 14.42 -28.00 29.20 7 <
5 -11 -2 15.01 -13.80 26.60 7 <
4 -9 -2 192.24 95.70 28.00 7 o
3 -7 -2 183.15 218.40 30.90 7 o
2 -5 -2 1292.10 998.60 41.90 7 o
1 -3 -2 6645.30 7660.40 80.90 7 o
-5 10 -2 77.37 71.80 28.80 7 <
5 -10 -1 104.25 85.50 27.30 7 o
-3 6 -1 322.93 352.00 32.80 7 o
-4 8 -1 9.01 -9.00 28.10 7 <
-5 10 -1 95.68 111.60 29.50 7 o
5 -10 0 31.31 82.10 26.60 7 o
4 -8 0 195.77 99.60 29.50 7 o
3 -6 0 151.71 254.40 32.00 7 o
2 -4 0 6146.40 6568.20 72.40 7 o
1 -2 0 31395.00 33523.70 148.80 7 o
-1 2 0 36486.00 39343.80 159.10 7 o
-2 4 0 11097.00 9185.60 82.80 7 o
5 -9 1 18.90 19.70 26.90 7 <
-3 7 1 162.50 -24.40 31.50 7 <
-4 9 1 26.13 16.40 26.70 7 <
-5 11 1 13.56 -51.90 27.90 7 <
5 -9 2 40.38 9.50 26.40 7 <
4 -7 2 131.09 187.80 28.70 7 o
3 -5 2 349.75 392.50 34.30 7 o
2 -3 2 6132.00 5213.70 68.00 7 o
-1 3 2 6505.20 7920.40 80.90 7 o
-2 5 2 1186.30 1132.90 42.30 7 o
-3 7 2 195.45 203.40 30.60 7 o
6 -10 3 47.54 -6.70 26.00 7 <
-3 8 3 411.52 432.20 32.00 7 o
-4 10 3 41.12 68.00 27.10 7 <
5 -8 4 13.75 13.50 27.00 7 <
4 -6 4 135.76 115.60 29.70 7 o
3 -4 4 266.64 245.30 32.80 7 o
-1 4 4 1188.30 1284.70 46.90 7 o
-2 6 4 208.31 277.80 32.90 7 o
-3 8 4 154.69 179.50 29.00 7 o
6 -9 5 70.31 15.60 26.20 7 <
-3 9 5 56.45 42.10 27.60 7 <
-4 11 5 43.59 9.80 26.80 7 <
6 -9 6 34.39 -32.50 25.90 7 <
5 -7 6 90.37 53.30 27.10 7 <
4 -5 6 1081.70 961.70 37.00 7 o
3 -3 6 1552.50 377.40 33.90 7 o
-1 5 6 2077.60 2928.50 51.30 7 o
-2 7 6 1722.80 2072.70 44.10 7 o
-3 9 6 220.76 266.30 29.30 7 o
-4 11 6 153.07 109.80 27.30 7 o
-3 10 7 14.57 17.80 26.90 7 <
6 -8 8 93.32 11.70 26.00 7 <
5 -6 8 22.85 32.00 26.40 7 <
4 -4 8 53.24 102.30 28.80 7 o
3 -2 8 506.87 454.30 34.60 7 o
-1 6 8 614.74 437.00 33.50 7 o
-2 8 8 861.56 1696.50 40.50 7 o
-3 10 8 132.38 31.20 27.60 7 <
5 -6 9 16.53 -31.40 26.50 7 <
4 -4 9 45.93 23.50 28.40 7 <
3 -2 9 233.61 224.60 30.70 7 o
-3 11 9 69.10 -13.40 27.10 7 <
6 -7 10 8.33 -38.70 25.80 7 <
5 -5 10 24.74 12.90 26.60 7 <
4 -3 10 72.73 51.20 28.00 7 <
3 -1 10 909.62 692.50 33.90 7 o
1 3 10 1249.50 1220.80 38.80 7 o
-1 7 10 349.90 271.30 30.50 7 o
-2 9 10 87.79 83.20 27.60 7 o
-3 11 10 15.44 -12.40 26.20 7 <
5 -5 11 245.07 88.70 27.40 7 o
4 -3 11 356.81 233.30 29.60 7 o
3 -1 11 187.42 115.50 28.80 7 o
2 1 11 47.01 -22.00 30.10 7 <
-2 10 11 3.51 -27.90 26.60 7 <
6 -6 12 11.21 -36.80 25.90 7 <
5 -4 12 157.41 91.40 27.40 7 o
4 -2 12 281.91 102.70 29.00 7 o
2 2 12 606.11 566.50 34.60 7 o
1 4 12 210.60 257.50 30.10 7 o
-1 8 12 95.05 26.80 27.50 7 <
-2 10 12 20.86 10.20 26.80 7 <
5 -4 13 90.38 17.70 26.80 7 <
4 -2 13 362.93 235.30 29.70 7 o
2 2 13 190.74 127.10 29.20 7 o
1 4 13 14.97 76.10 27.70 7 <
5 -3 14 77.76 17.90 26.50 7 <
4 -1 14 242.96 93.00 28.10 7 o
3 1 14 390.97 140.30 29.90 7 o
2 3 14 105.38 156.50 28.50 7 o
1 5 14 808.69 874.80 34.60 7 o
-1 9 14 53.03 27.10 26.90 7 <
5 -3 15 50.97 20.90 26.40 7 <
4 -1 15 26.11 30.80 26.40 7 <
3 1 15 626.84 438.70 32.10 7 o
2 3 15 127.17 119.60 28.30 7 o
1 5 15 21.51 48.80 27.40 7 <
5 -2 16 25.10 -45.80 25.60 7 <
4 0 16 7.73 -44.50 26.40 7 <
3 2 16 53.64 103.00 27.20 7 o
2 4 16 81.61 -0.20 26.90 7 <
1 6 16 70.25 65.30 26.90 7 <
4 0 17 48.26 12.40 26.30 7 <
3 2 17 48.39 -16.20 26.60 7 <
2 4 17 44.09 25.90 26.30 7 <
1 6 17 3.52 21.50 26.30 7 <
4 1 18 50.58 -2.10 26.00 7 <
3 3 18 35.59 30.60 26.50 7 <
2 5 18 14.94 2.30 26.30 7 <
-2 -3 -19 17.02 -38.90 28.20 11 <
-3 -1 -19 8.15 -38.40 27.90 11 <
-1 -5 -18 13.98 -22.90 27.30 11 <
-2 -3 -18 14.73 1.60 28.10 11 <
-4 2 -18 6.20 -5.60 27.50 11 <
-1 -5 -17 8.07 36.90 26.00 11 <
-2 -2 -17 90.70 96.00 29.40 11 o
-4 3 -17 29.55 9.80 27.30 11 <
0 -7 -16 6.18 32.70 26.40 11 <
-1 -4 -16 56.97 34.20 26.80 11 <
-2 -2 -16 330.85 394.30 32.10 11 o
-3 1 -16 8.52 47.30 28.70 11 <
-4 3 -16 66.49 75.50 28.70 11 <
1 -9 -15 0.72 41.80 26.10 11 <
-1 -4 -15 4.28 -48.00 27.10 11 <
-3 1 -15 450.91 594.30 33.30 11 o
-4 4 -15 22.55 -15.70 28.10 11 <
1 -8 -14 140.66 159.40 27.00 11 o
0 -6 -14 68.15 143.10 27.40 11 o
-2 -1 -14 1092.70 1147.00 39.20 11 o
-4 4 -14 9.79 28.50 28.40 11 <
2 -10 -13 3.52 20.40 26.30 11 <
1 -8 -13 0.44 -33.00 26.10 11 <
-1 -3 -13 87.76 91.40 28.00 11 o
-3 2 -13 62.98 17.40 30.30 11 <
-5 7 -13 0.63 -40.40 27.50 11 <
2 -10 -12 3.06 -1.40 26.50 11 <
-1 -3 -12 1096.20 1266.30 37.50 11 o
-2 0 -12 250.09 283.70 31.00 11 o
-3 2 -12 987.90 822.60 37.10 11 o
-4 5 -12 72.79 108.80 28.80 11 o
-5 8 -12 23.47 -31.90 27.40 11 <
1 -7 -11 9.98 48.50 26.70 11 <
-2 0 -11 460.25 442.90 32.20 11 o
-3 3 -11 10.34 2.60 29.60 11 <
-4 5 -11 68.63 56.20 28.80 11 <
-5 8 -11 3.37 -3.20 27.60 11 <
2 -9 -10 60.96 -1.70 26.40 11 <
1 -7 -10 245.99 216.00 28.70 11 o
-1 -2 -10 623.67 862.30 35.20 11 o
-3 3 -10 36.48 65.00 30.30 11 <
-4 6 -10 376.92 344.20 32.30 11 o
-5 8 -10 11.20 -34.30 27.90 11 <
3 -11 -9 60.19 12.40 26.90 11 <
2 -9 -9 44.15 8.40 27.20 11 <
-2 1 -9 467.46 535.10 33.50 11 o
-4 6 -9 19.84 10.10 29.40 11 <
-5 9 -9 27.64 51.30 27.80 11 <
3 -11 -8 18.95 -2.80 26.60 11 <
2 -8 -8 1155.20 1277.80 37.30 11 o
1 -6 -8 12.33 30.30 28.40 11 <
-1 -1 -8 8.48 47.90 31.90 11 <
-3 4 -8 182.87 372.20 31.80 11 o
-4 7 -8 579.73 442.60 33.20 11 o
-5 9 -8 3.79 -24.20 27.90 11 <
3 -10 -7 8.43 30.20 26.30 11 <
2 -8 -7 257.35 245.00 30.10 11 o
-2 2 -7 488.64 614.60 35.80 11 o
-4 7 -7 141.93 152.30 30.70 11 o
-5 10 -7 60.15 25.40 27.90 11 <
3 -10 -6 15.18 25.50 26.00 11 <
1 -5 -6 2398.80 2287.70 46.40 11 o
-3 5 -6 134.64 52.40 29.00 11 <
-5 10 -6 37.18 32.60 28.30 11 <
4 -12 -5 38.44 -26.20 25.90 11 <
2 -7 -5 75.04 117.80 28.90 11 o
-4 8 -5 19.94 55.70 28.80 11 <
-5 11 -5 20.42 -23.20 27.80 11 <
4 -11 -4 49.74 27.70 26.20 11 <
3 -9 -4 113.36 101.10 27.10 11 o
-3 6 -4 23.01 -1.80 28.70 11 <
-5 11 -4 7.10 -43.90 27.50 11 <
4 -11 -3 21.09 -61.50 26.20 11 <
2 -6 -3 30.97 31.30 28.80 11 <
-3 6 -3 15.15 27.20 28.20 11 <
-4 9 -3 17.82 -53.40 28.00 11 <
3 -8 -2 8.64 -6.30 26.40 11 <
-2 4 -2 736.97 602.00 38.50 11 o
-3 7 -2 236.34 166.50 29.10 11 o
-4 9 -2 156.72 101.20 28.50 11 o
4 -10 -1 1.20 5.00 26.20 11 <
1 -3 -1 1283.80 1264.80 54.30 11 o
-1 2 -1 1553.10 1181.30 61.20 11 o
-3 7 -1 80.81 -7.90 27.90 11 <
-4 10 -1 1.16 -10.50 27.30 11 <
-3 8 0 15.60 37.10 26.90 11 <
-4 10 0 17.51 46.70 26.60 11 <
5 -11 1 4.53 12.10 26.00 11 <
4 -9 1 7.15 18.30 26.60 11 <
3 -7 1 78.83 38.80 27.40 11 <
1 -2 1 1364.90 1332.70 60.00 11 o
-1 3 1 1106.50 1197.30 50.30 11 o
-3 8 1 12.62 -1.00 26.90 11 <
-4 11 1 7.95 52.00 26.10 11 <
5 -11 2 2.28 3.30 25.30 11 <
4 -9 2 103.38 101.40 27.00 11 o
2 -4 2 595.88 695.70 38.20 11 o
-2 6 2 242.50 157.90 30.60 11 o
-3 9 2 147.78 191.00 28.50 11 o
-4 11 2 27.20 -1.50 26.20 11 <
5 -11 3 50.61 38.20 25.90 11 <
4 -8 3 166.92 120.80 27.80 11 o
3 -6 3 21.15 25.30 28.50 11 <
-1 4 3 87.89 167.60 35.60 11 o
-3 9 3 52.26 39.10 26.70 11 <
-4 12 3 10.12 -3.60 25.90 11 <
5 -10 4 8.76 -58.90 25.80 11 <
4 -8 4 4.65 -32.20 26.00 11 <
2 -3 4 36.09 68.60 34.50 11 <
-2 7 4 231.27 254.20 29.70 11 o
-3 10 4 164.54 109.70 26.90 11 o
-4 12 4 13.26 -16.50 25.80 11 <
5 -10 5 86.71 35.30 25.90 11 <
3 -5 5 110.99 90.50 28.10 11 o
-1 5 5 286.96 321.00 34.50 11 o
-3 10 5 32.44 33.50 26.50 11 <
5 -9 6 8.61 31.90 25.20 11 <
4 -7 6 347.94 332.30 29.50 11 o
2 -2 6 930.78 621.80 38.40 11 o
-2 8 6 44.71 40.40 27.20 11 <
-3 11 6 236.31 156.80 27.90 11 o
5 -9 7 2.80 21.60 25.20 11 <
3 -4 7 413.15 404.00 31.80 11 o
-1 6 7 157.29 94.30 29.40 11 o
-3 11 7 20.31 -23.60 26.10 11 <
5 -8 8 201.84 79.50 26.40 11 o
4 -6 8 730.62 729.10 33.30 11 o
-1 6 8 27.28 69.00 28.40 11 <
-2 9 8 2.75 -28.70 26.10 11 <
-3 12 8 22.04 6.40 25.90 11 <
5 -8 9 4.18 27.30 25.60 11 <
3 -3 9 111.26 7.80 28.20 11 <
2 -1 9 771.96 690.80 35.50 11 o
-1 7 9 270.58 218.00 29.70 11 o
-2 9 9 45.59 14.40 26.80 11 <
4 -5 10 20.40 27.20 27.20 11 <
3 -3 10 64.85 28.90 27.20 11 <
1 2 10 666.86 839.00 35.30 11 o
-1 7 10 251.25 226.30 28.60 11 o
-2 10 10 261.94 218.90 27.60 11 o
5 -7 11 1.64 13.10 25.80 11 <
4 -5 11 60.57 61.10 26.30 11 <
3 -2 11 182.35 205.60 28.90 11 o
2 0 11 451.33 310.90 31.30 11 o
-1 8 11 5.74 9.60 26.70 11 <
4 -4 12 120.41 50.30 27.10 11 <
3 -2 12 789.21 697.30 33.20 11 o
1 3 12 753.01 726.80 34.10 11 o
-1 8 12 14.82 58.70 26.70 11 <
5 -6 13 6.85 35.90 25.30 11 <
4 -4 13 61.42 12.40 26.10 11 <
3 -1 13 126.42 101.50 27.90 11 o
2 1 13 10.03 60.00 27.80 11 <
1 4 13 1.82 -45.80 27.50 11 <
-1 9 13 9.48 -10.60 26.00 11 <
5 -6 14 15.44 16.20 25.70 11 <
4 -3 14 129.48 93.00 27.20 11 o
3 -1 14 172.60 139.70 28.50 11 o
2 2 14 323.58 496.00 30.80 11 o
1 4 14 194.30 201.40 28.50 11 o
-1 9 14 5.86 -2.10 25.80 11 <
5 -5 15 17.96 5.40 25.60 11 <
4 -3 15 37.47 21.60 26.00 11 <
2 2 15 64.25 -15.80 27.10 11 <
1 5 15 1.08 -38.20 26.10 11 <
4 -2 16 95.62 48.40 26.30 11 <
2 3 16 54.64 46.90 26.50 11 <
1 5 16 61.14 33.00 26.30 11 <
4 -2 17 119.42 75.50 26.30 11 <
3 1 17 4.19 -4.80 26.10 11 <
2 3 17 62.57 51.50 26.00 11 <
1 6 17 1.01 6.40 25.90 11 <
4 -1 18 19.50 11.80 25.60 11 <
3 1 18 21.11 -11.90 25.90 11 <
2 4 18 110.87 106.60 26.20 11 o
1 6 18 29.93 50.90 25.80 11 <
3 2 19 30.52 -26.80 25.50 11 <
2 4 19 2.39 47.00 26.00 11 <
-1 -5 -19 1.92 -13.40 27.50 12 <
-2 -3 -19 12.18 -9.20 27.80 12 <
-1 -5 -18 3.03 17.00 27.00 12 <
-1 -5 -17 3.08 15.20 25.70 12 <
-2 -2 -17 48.87 64.90 28.10 12 <
-3 1 -17 2.04 31.00 28.10 12 <
-4 3 -17 15.47 30.10 27.00 12 <
0 -7 -16 5.36 21.80 26.30 12 <
-1 -4 -16 33.23 36.00 26.10 12 <
-2 -2 -16 361.65 403.50 31.60 12 o
-3 1 -16 8.00 -25.30 28.00 12 <
-4 4 -16 7.61 5.50 27.50 12 <
1 -9 -15 1.86 32.00 25.80 12 <
-1 -4 -15 3.99 -128.10 26.40 12 <
-2 -1 -15 3.44 -6.10 28.90 12 <
-4 4 -15 19.00 6.80 27.60 12 <
1 -9 -14 4.09 -43.60 25.90 12 <
0 -6 -14 50.45 108.60 26.70 12 o
-2 -1 -14 880.38 1025.40 36.30 12 o
-3 2 -14 111.14 97.20 29.20 12 o
-4 5 -14 26.15 87.60 28.10 12 o
1 -8 -13 1.29 -29.60 26.10 12 <
-1 -3 -13 52.19 53.40 27.10 12 <
-3 2 -13 57.57 32.30 28.80 12 <
-4 5 -13 18.40 -2.90 28.10 12 <
2 -10 -12 1.45 40.90 26.00 12 <
1 -8 -12 12.13 11.50 26.10 12 <
-2 0 -12 211.27 207.40 29.20 12 o
-3 3 -12 720.09 650.00 34.70 12 o
-5 8 -12 18.51 -29.00 27.20 12 <
2 -10 -11 1.50 -4.40 26.00 12 <
-1 -2 -11 100.75 47.00 27.80 12 <
-3 3 -11 5.50 4.50 28.50 12 <
-4 6 -11 96.93 90.30 28.60 12 o
1 -7 -10 133.57 129.00 27.00 12 o
-1 -2 -10 649.84 701.20 33.40 12 o
-2 1 -10 69.58 0.60 27.40 12 <
-4 6 -10 386.51 361.80 31.10 12 o
-5 9 -10 4.19 8.60 27.20 12 <
2 -9 -9 20.34 11.40 26.30 12 <
-3 4 -9 51.72 37.00 28.70 12 <
-4 7 -9 22.79 36.70 27.80 12 <
3 -11 -8 9.81 22.30 26.10 12 <
2 -9 -8 1.23 -62.10 26.60 12 <
1 -6 -8 13.62 22.50 27.00 12 <
-1 -1 -8 20.76 22.80 29.80 12 <
-2 2 -8 54.55 58.20 28.50 12 <
-4 7 -8 371.54 330.60 30.60 12 o
-5 10 -8 12.16 -93.10 27.70 12 <
3 -11 -7 16.97 -24.30 26.00 12 <
2 -8 -7 227.40 183.60 27.80 12 o
-2 2 -7 515.19 564.00 32.70 12 o
-3 5 -7 30.59 30.10 28.20 12 <
-4 8 -7 93.80 78.80 28.40 12 <
3 -10 -6 11.13 -20.30 25.90 12 <
2 -8 -6 29.33 46.40 26.90 12 <
-4 8 -6 70.63 11.60 28.50 12 <
4 -12 -5 18.74 14.80 25.70 12 <
3 -10 -5 27.97 -8.90 26.40 12 <
1 -5 -5 251.40 330.30 32.00 12 o
-2 3 -5 289.73 246.50 31.60 12 o
-3 6 -5 120.48 33.00 27.60 12 <
-4 9 -5 98.59 38.70 29.10 12 <
4 -12 -4 11.41 -25.40 25.70 12 <
2 -7 -4 163.23 151.00 27.90 12 o
-4 9 -4 22.04 57.00 27.80 12 <
3 -9 -3 27.71 16.80 26.10 12 <
1 -4 -3 52.63 110.20 31.10 12 o
-2 4 -3 51.68 103.60 30.00 12 o
-3 7 -3 17.79 40.40 26.80 12 <
-4 10 -3 3.54 47.10 28.10 12 <
4 -11 -2 17.64 25.90 25.70 12 <
2 -6 -2 182.96 108.10 27.70 12 o
-3 7 -2 193.33 119.90 27.30 12 o
-4 10 -2 391.34 282.40 29.90 12 o
4 -11 -1 7.47 7.20 25.70 12 <
3 -8 -1 15.65 -8.50 26.20 12 <
1 -3 -1 881.19 775.30 44.00 12 o
-2 5 -1 16.96 64.10 28.40 12 <
-3 8 -1 6.27 47.30 26.10 12 <
-4 11 -1 7.97 42.70 27.20 12 <
4 -10 0 3.63 -27.70 25.80 12 <
3 -8 0 5.79 -5.70 26.40 12 <
-3 8 0 5.36 -11.60 26.30 12 <
4 -10 1 3.13 -5.20 25.70 12 <
3 -7 1 53.81 -14.00 26.50 12 <
-2 6 1 6.59 37.00 26.90 12 <
-3 9 1 18.26 15.90 26.20 12 <
-4 12 1 4.34 14.60 25.60 12 <
4 -9 2 91.75 23.70 26.00 12 <
3 -7 2 167.95 172.90 27.80 12 o
-3 9 2 104.11 1.70 26.90 12 <
-4 12 2 37.40 32.90 25.90 12 <
5 -11 3 28.86 54.00 25.80 12 <
4 -9 3 7.53 -2.50 25.70 12 <
2 -4 3 96.95 28.30 30.90 12 <
-1 4 3 55.72 57.70 30.70 12 <
-2 7 3 35.29 0.50 27.00 12 <
-3 10 3 4.98 20.10 26.20 12 <
5 -11 4 4.90 36.70 25.30 12 <
3 -6 4 11.12 35.50 27.00 12 <
-3 10 4 88.32 -27.40 26.60 12 <
5 -10 5 96.43 -7.40 25.40 12 <
4 -8 5 14.61 25.40 25.50 12 <
2 -3 5 245.39 149.40 31.70 12 o
-1 5 5 255.44 229.60 30.10 12 o
-2 8 5 107.76 131.60 27.30 12 o
-3 11 5 12.31 4.40 25.60 12 <
5 -10 6 23.24 10.80 25.20 12 <
3 -5 6 118.90 34.90 27.20 12 <
-2 8 6 52.69 -17.20 26.50 12 <
-3 11 6 113.84 76.50 26.30 12 <
5 -10 7 75.78 42.40 25.90 12 <
4 -7 7 122.30 85.40 26.90 12 o
2 -2 7 324.35 323.50 31.40 12 o
-1 6 7 53.94 46.40 27.00 12 <
-2 9 7 77.62 24.10 26.60 12 <
-3 12 7 0.27 -25.20 25.90 12 <
5 -9 8 5.25 47.40 24.90 12 <
4 -7 8 428.67 522.30 30.90 12 o
3 -4 8 172.28 180.00 27.90 12 o
1 1 8 15.71 -49.60 29.60 12 <
-2 9 8 1.40 33.20 25.90 12 <
-3 12 8 7.85 -27.50 25.70 12 <
5 -9 9 22.98 33.50 25.50 12 <
4 -6 9 7.69 -45.60 26.50 12 <
2 -1 9 367.23 376.20 30.20 12 o
-1 7 9 162.61 134.40 27.90 12 o
-2 10 9 1.94 18.20 25.50 12 <
5 -8 10 5.78 -5.60 25.40 12 <
4 -6 10 334.76 302.70 28.70 12 o
3 -3 10 25.58 23.40 26.20 12 <
1 2 10 466.63 605.00 31.50 12 o
-2 10 10 245.19 68.70 27.00 12 <
5 -8 11 2.33 19.40 25.30 12 <
4 -5 11 34.53 6.60 25.60 12 <
3 -3 11 19.89 -20.30 26.40 12 <
2 0 11 316.26 264.70 29.80 12 o
-1 8 11 8.26 5.50 26.30 12 <
-2 11 11 9.20 30.00 25.90 12 <
5 -7 12 36.74 27.10 25.40 12 <
4 -5 12 47.27 56.00 26.00 12 <
3 -2 12 469.92 373.70 30.20 12 o
1 3 12 496.05 537.40 30.90 12 o
-1 9 12 74.98 42.20 26.90 12 <
5 -7 13 2.52 5.20 25.20 12 <
4 -4 13 46.76 10.80 25.80 12 <
3 -2 13 64.42 26.70 26.10 12 <
2 1 13 14.25 60.40 27.00 12 <
-1 9 13 6.86 33.90 25.70 12 <
5 -6 14 4.68 -10.50 25.30 12 <
4 -4 14 21.86 7.60 25.30 12 <
3 -1 14 174.00 142.70 27.60 12 o
1 4 14 114.00 138.40 26.50 12 o
-1 10 14 13.82 70.10 26.10 12 <
4 -3 15 17.61 21.00 25.60 12 <
3 -1 15 423.71 389.60 29.80 12 o
2 2 15 23.86 -26.60 26.50 12 <
1 5 15 1.63 -20.40 25.80 12 <
4 -3 16 44.03 22.50 25.70 12 <
1 5 16 53.66 23.30 25.90 12 <
4 -2 17 65.66 15.20 25.70 12 <
2 3 17 29.76 43.80 25.90 12 <
1 6 17 0.40 -17.50 25.50 12 <
4 -2 18 4.54 18.90 25.40 12 <
3 1 18 16.92 17.80 25.60 12 <
2 3 18 9.17 19.50 25.30 12 <
1 6 18 23.69 23.20 25.60 12 <
3 1 19 7.19 1.50 25.20 12 <
2 4 19 2.72 42.00 25.20 12 <
-1 -5 -19 6.60 10.20 28.20 13 <
-1 -5 -18 12.00 -42.80 27.60 13 <
-2 -2 -18 10.25 40.20 28.50 13 <
-3 1 -18 23.30 43.50 28.60 13 <
-1 -4 -17 12.65 -44.50 28.30 13 <
-2 -2 -17 128.29 112.60 29.70 13 o
-3 1 -17 7.51 96.40 28.50 13 o
-4 4 -17 31.87 27.20 27.70 13 <
0 -7 -16 19.57 69.00 26.90 13 <
-1 -4 -16 61.55 79.80 27.20 13 <
-2 -1 -16 1034.20 1068.20 38.00 13 o
-3 2 -16 99.83 89.00 29.90 13 <
-4 4 -16 10.05 -36.70 28.50 13 <
1 -9 -15 0.78 16.10 26.50 13 <
-1 -4 -15 17.39 -40.20 27.20 13 <
-2 -1 -15 4.72 56.80 31.20 13 <
-3 2 -15 13.22 33.90 30.10 13 <
-4 5 -15 19.68 59.60 27.70 13 <
1 -9 -14 4.57 -37.90 26.30 13 <
0 -6 -14 112.50 112.90 28.50 13 o
-1 -3 -14 141.57 136.40 29.00 13 o
-3 2 -14 422.25 343.30 32.90 13 o
-4 5 -14 22.83 -0.90 28.90 13 <
1 -8 -13 1.39 13.20 26.80 13 <
-1 -3 -13 129.47 100.50 29.10 13 o
-2 0 -13 106.61 101.10 31.50 13 o
-3 3 -13 328.52 273.10 32.80 13 o
-4 6 -13 37.72 50.10 28.80 13 <
2 -10 -12 21.74 22.10 26.70 13 <
1 -8 -12 26.21 38.80 26.90 13 <
-3 3 -12 1878.80 1842.60 43.50 13 o
-4 6 -12 5.62 41.00 28.80 13 <
2 -10 -11 1.92 50.40 26.80 13 <
-1 -2 -11 145.21 118.50 31.50 13 o
-2 1 -11 40.09 38.90 29.30 13 <
-3 4 -11 211.84 176.80 31.50 13 o
-4 7 -11 235.64 246.20 31.60 13 o
2 -10 -10 561.93 423.40 31.10 13 o
1 -7 -10 320.54 287.60 29.80 13 o
-2 1 -10 200.15 138.30 30.60 13 o
-3 4 -10 102.24 74.70 31.80 13 <
-4 7 -10 33.44 -3.50 29.20 13 <
2 -9 -9 69.54 48.20 28.10 13 <
-1 -1 -9 442.49 540.40 35.50 13 o
3 -11 -8 45.73 25.10 26.80 13 <
2 -9 -8 26.67 24.90 27.90 13 <
1 -6 -8 52.58 140.60 29.80 13 o
-2 2 -8 113.14 67.40 32.20 13 <
-3 5 -8 946.76 1029.20 39.80 13 o
-4 8 -8 368.61 350.30 32.40 13 o
3 -11 -7 41.94 -26.50 27.10 13 <
1 -6 -7 203.10 125.80 31.20 13 o
-4 8 -7 322.92 231.40 31.40 13 o
3 -11 -6 386.17 343.50 29.80 13 o
2 -8 -6 101.59 64.80 29.50 13 <
-2 3 -6 252.83 324.30 36.70 13 o
-3 6 -6 23.06 62.70 31.00 13 <
-4 9 -6 52.06 38.80 29.30 13 <
3 -10 -5 71.04 58.20 27.30 13 <
1 -5 -5 455.82 367.60 36.80 13 o
-3 6 -5 458.00 292.10 31.70 13 o
-4 9 -5 251.26 177.30 30.70 13 o
4 -12 -4 29.22 14.10 26.40 13 <
3 -10 -4 288.79 232.90 28.20 13 o
2 -7 -4 415.27 386.40 32.30 13 o
-1 1 -4 279.52 181.90 54.90 13 o
-2 4 -4 657.22 878.70 41.30 13 o
-3 7 -4 1728.60 1981.20 44.20 13 o
-4 10 -4 433.04 317.00 31.40 13 o
4 -12 -3 22.99 13.10 26.50 13 <
3 -9 -3 137.35 39.80 28.10 13 <
2 -7 -3 177.48 77.40 30.60 13 <
1 -4 -3 136.40 185.80 37.80 13 o
-3 7 -3 80.10 73.80 29.00 13 <
-4 10 -3 6.49 15.40 29.50 13 <
4 -12 -2 244.48 187.80 27.80 13 o
3 -9 -2 182.90 190.70 28.80 13 o
-1 2 -2 53465.00 53399.60 181.90 13 o
-2 5 -2 392.99 465.60 36.00 13 o
-3 8 -2 89.57 88.10 28.90 13 o
-4 11 -2 68.08 3.10 29.20 13 <
4 -11 -1 15.13 -9.30 26.30 13 <
2 -6 -1 11.24 -22.40 30.30 13 <
-2 5 -1 30.53 27.90 34.00 13 <
-3 8 -1 15.63 50.20 27.40 13 <
-4 11 -1 37.16 -9.20 27.80 13 <
3 -8 0 21.57 20.60 27.70 13 <
-4 12 0 109.90 37.80 28.00 13 <
4 -10 1 10.38 52.10 26.80 13 <
2 -5 1 44.88 82.50 32.10 13 <
-2 6 1 7.88 51.40 30.30 13 <
-3 9 1 27.42 -43.60 27.80 13 <
-4 12 1 8.70 39.80 26.40 13 <
4 -10 2 858.14 726.70 33.20 13 o
3 -7 2 401.83 272.40 30.20 13 o
-3 10 2 310.64 367.00 30.50 13 o
4 -9 3 33.28 42.30 27.00 13 <
3 -7 3 80.75 45.10 28.60 13 <
2 -4 3 109.37 160.40 36.60 13 o
-2 7 3 216.81 160.00 30.90 13 o
-3 10 3 36.20 39.30 27.30 13 <
4 -9 4 5.34 46.80 26.40 13 <
1 -1 4 342.92 472.00 52.70 13 o
-3 11 4 166.42 156.00 28.30 13 o
5 -11 5 25.13 27.80 25.80 13 <
3 -6 5 245.36 179.90 30.40 13 o
2 -3 5 754.86 605.80 38.60 13 o
-1 5 5 515.94 511.10 37.70 13 o
-2 8 5 184.17 184.50 30.20 13 o
-3 11 5 17.71 -9.20 26.60 13 <
4 -8 6 83.43 32.90 27.60 13 <
-2 9 6 562.49 544.10 32.00 13 o
-3 12 6 130.12 51.40 27.10 13 <
5 -10 7 138.20 92.00 26.40 13 o
4 -8 7 401.23 340.90 29.60 13 o
3 -5 7 71.22 74.90 29.00 13 <
-1 6 7 169.55 164.90 30.50 13 o
-2 9 7 217.41 197.60 29.30 13 o
-3 12 7 0.37 27.70 25.90 13 <
5 -10 8 46.35 26.30 25.50 13 <
4 -7 8 797.15 799.70 34.10 13 o
2 -2 8 80.88 165.80 32.80 13 o
1 1 8 60.80 111.60 35.10 13 o
-2 10 8 122.21 114.10 27.90 13 o
5 -9 9 42.74 39.20 25.80 13 <
4 -7 9 18.35 5.60 27.20 13 <
3 -4 9 91.83 28.10 28.80 13 <
-1 7 9 526.37 405.50 32.70 13 o
-2 10 9 2.24 -31.90 26.50 13 <
5 -9 10 8.10 53.20 25.60 13 <
4 -6 10 682.06 634.80 32.50 13 o
2 -1 10 125.62 158.30 31.60 13 o
1 2 10 985.95 1312.70 39.70 13 o
-1 8 10 749.96 877.70 34.90 13 o
-2 11 10 248.08 193.20 28.00 13 o
5 -8 11 3.14 51.70 25.50 13 <
4 -6 11 270.86 169.50 28.90 13 o
3 -3 11 17.83 -1.30 30.10 13 <
-1 8 11 17.24 -14.50 27.40 13 <
-2 11 11 24.09 12.40 26.10 13 <
5 -8 12 32.57 -4.20 25.60 13 <
4 -5 12 178.24 78.40 27.40 13 <
3 -3 12 2328.30 2545.60 45.80 13 o
2 0 12 305.78 331.70 31.80 13 o
1 3 12 1487.30 1368.00 39.40 13 o
-1 9 12 108.49 139.40 27.70 13 o
5 -7 13 8.03 1.80 25.90 13 <
4 -5 13 80.13 47.00 26.40 13 <
3 -2 13 85.37 21.60 29.10 13 <
-1 9 13 11.27 28.40 26.60 13 <
4 -4 14 41.90 49.60 26.20 13 <
3 -2 14 359.05 438.60 31.50 13 o
2 1 14 2075.20 2069.10 43.20 13 o
1 4 14 356.75 388.50 30.70 13 o
-1 10 14 25.08 70.70 26.60 13 <
4 -4 15 18.19 27.10 26.10 13 <
3 -1 15 841.98 907.70 35.10 13 o
1 4 15 20.42 -43.40 27.80 13 <
4 -3 16 144.27 76.90 27.40 13 <
3 -1 16 78.08 59.20 26.90 13 <
2 2 16 586.43 520.00 31.80 13 o
1 5 16 144.52 71.70 27.40 13 <
4 -3 17 42.09 -8.40 25.60 13 <
2 3 17 129.10 109.20 27.20 13 o
1 5 17 2.31 50.50 26.30 13 <
4 -2 18 16.02 -28.80 25.60 13 <
2 3 18 42.29 -7.30 26.30 13 <
1 6 18 55.84 18.50 26.20 13 <
3 1 19 12.12 14.60 25.90 13 <
2 4 19 13.13 55.50 26.00 13 <
-1 -5 -19 2.51 21.40 27.60 14 <
-2 -2 -19 17.85 26.30 28.10 14 <
-3 1 -19 9.74 -7.10 28.30 14 <
-1 -5 -18 14.50 19.80 27.60 14 <
-2 -2 -18 15.94 -12.80 28.20 14 <
-3 1 -18 68.90 -12.90 28.40 14 <
-1 -4 -17 3.06 64.60 27.50 14 <
-2 -1 -17 18.07 -52.20 28.80 14 <
-3 2 -17 75.31 21.70 28.60 14 <
0 -7 -16 18.91 8.20 26.60 14 <
-1 -4 -16 80.01 95.20 26.90 14 o
-2 -1 -16 811.86 820.10 36.30 14 o
-3 2 -16 55.33 126.20 28.80 14 o
-4 5 -16 27.73 36.40 27.60 14 <
1 -9 -15 1.81 33.90 25.80 14 <
-2 -1 -15 14.45 -39.30 29.70 14 <
-3 2 -15 7.29 53.50 28.90 14 <
-4 5 -15 39.16 -20.20 27.80 14 <
-4 6 -15 8.90 -19.70 27.30 14 <
1 -9 -14 4.38 14.30 26.20 14 <
0 -6 -14 128.43 157.90 28.30 14 o
-1 -3 -14 176.33 218.50 28.80 14 o
-2 0 -14 74.33 41.10 30.60 14 <
-3 3 -14 78.52 33.50 30.30 14 <
-4 6 -14 30.57 63.20 27.80 14 <
1 -8 -13 5.35 16.10 26.20 14 <
-1 -3 -13 153.13 129.20 27.90 14 o
-2 0 -13 113.62 78.60 30.20 14 <
-3 3 -13 348.11 374.10 31.90 14 o
-4 6 -13 27.27 -13.50 28.50 14 <
1 -8 -12 31.84 43.20 26.50 14 <
0 -5 -12 20.67 58.00 27.50 14 <
-1 -2 -12 1839.90 2058.80 43.20 14 o
-2 1 -12 768.27 752.10 35.70 14 o
-3 4 -12 561.55 694.50 35.30 14 o
-4 7 -12 52.34 50.20 28.20 14 <
2 -10 -11 7.09 63.30 26.40 14 <
1 -8 -11 17.66 44.90 26.80 14 <
-1 -2 -11 126.25 121.40 30.30 14 o
-2 1 -11 35.58 -13.60 29.00 14 <
-3 4 -11 90.64 127.50 30.90 14 o
-4 7 -11 176.53 93.50 29.50 14 o
2 -10 -10 446.08 316.90 29.40 14 o
1 -7 -10 387.69 369.30 30.50 14 o
-4 8 -10 154.91 141.50 29.90 14 o
2 -10 -9 1.45 5.50 26.70 14 <
1 -7 -9 439.07 429.60 31.60 14 o
-1 -1 -9 409.11 498.90 34.30 14 o
-2 2 -9 82.96 13.40 29.80 14 <
-3 5 -9 494.60 424.20 34.70 14 o
-4 8 -9 101.82 63.80 29.10 14 <
3 -12 -8 33.82 -24.10 26.80 14 <
2 -9 -8 36.08 -16.40 27.50 14 <
-4 9 -8 29.50 51.20 28.20 14 <
3 -12 -7 0.88 53.30 26.00 14 <
2 -9 -7 190.52 50.70 28.60 14 <
1 -6 -7 148.06 98.40 29.20 14 o
-2 3 -7 235.25 241.50 32.40 14 o
-3 6 -7 293.28 337.90 33.40 14 o
-4 9 -7 20.48 -64.50 28.70 14 <
3 -11 -6 273.50 239.00 28.80 14 o
2 -8 -6 86.99 126.80 28.90 14 o
-3 6 -6 68.20 38.60 30.10 14 <
-4 10 -6 97.05 29.80 29.00 14 <
3 -11 -5 40.38 -16.80 26.50 14 <
2 -8 -5 251.48 242.10 30.60 14 o
1 -5 -5 531.11 477.00 36.70 14 o
-3 7 -5 172.82 149.90 30.70 14 o
-4 10 -5 9.98 14.50 28.20 14 <
3 -10 -4 184.44 129.20 28.10 14 o
-2 4 -4 776.61 945.30 40.40 14 o
-3 7 -4 1629.70 2112.60 43.90 14 o
-4 10 -4 663.40 497.40 32.20 14 o
-4 11 -4 91.93 32.20 28.90 14 <
3 -10 -3 7.39 -52.10 27.10 14 <
2 -7 -3 109.12 51.10 29.60 14 <
-3 8 -3 633.48 471.50 32.00 14 o
-4 11 -3 42.32 -33.60 28.20 14 <
4 -12 -2 121.32 25.20 26.50 14 <
-1 2 -2 41795.00 38094.50 154.10 14 o
-2 5 -2 382.20 338.40 35.80 14 o
-3 8 -2 86.18 71.20 28.80 14 <
-4 11 -2 65.91 99.00 28.60 14 o
-4 12 -2 223.56 145.00 28.80 14 o
4 -12 -1 2.58 -64.40 26.50 14 <
3 -9 -1 16.94 18.20 27.10 14 <
2 -6 -1 10.24 -46.50 29.90 14 <
-3 9 -1 29.76 4.80 26.80 14 <
-4 12 -1 14.23 -14.30 27.70 14 <
2 -6 0 41.23 65.60 29.70 14 <
-2 6 0 29.46 68.40 29.90 14 <
-4 12 0 88.34 82.40 27.90 14 <
4 -11 1 9.84 -41.20 26.20 14 <
3 -8 1 16.17 183.00 28.20 14 o
-3 10 1 282.18 329.50 29.70 14 o
4 -10 2 1209.90 1301.40 36.40 14 o
3 -8 2 89.88 173.80 28.40 14 o
2 -5 2 371.00 326.10 36.10 14 o
1 -2 2 37158.00 32121.20 144.00 14 o
-1 4 2 1121.10 1012.30 44.20 14 o
-2 7 2 578.90 610.00 33.00 14 o
-3 10 2 260.16 221.20 28.60 14 o
4 -10 3 2.55 41.90 26.50 14 <
3 -7 3 65.10 26.60 28.80 14 <
-3 11 3 83.62 10.60 26.40 14 <
3 -7 4 1445.20 1587.80 40.00 14 o
2 -4 4 580.74 739.50 39.10 14 o
1 -1 4 637.34 351.40 51.60 14 o
-1 5 4 2153.40 2471.60 49.30 14 o
-2 8 4 137.58 103.90 28.90 14 o
-3 11 4 118.32 43.50 26.80 14 <
4 -9 5 204.18 71.40 27.70 14 <
-3 12 5 151.71 62.60 26.50 14 <
4 -9 6 40.94 57.30 26.30 14 <
3 -6 6 24.02 37.50 28.90 14 <
2 -3 6 209.29 241.30 35.30 14 o
-1 6 6 106.01 44.00 30.60 14 <
-2 9 6 251.83 247.10 29.90 14 o
-3 12 6 151.43 38.50 26.90 14 <
4 -8 7 208.10 175.20 27.90 14 o
5 -10 8 33.92 32.50 25.80 14 <
4 -8 8 410.98 216.20 29.00 14 o
3 -5 8 1238.70 1146.00 36.50 14 o
2 -2 8 93.19 151.00 31.50 14 o
1 1 8 80.13 210.20 35.20 14 o
-1 7 8 79.66 0.50 28.90 14 <
-2 10 8 115.16 112.90 27.10 14 o
4 -7 9 54.03 -4.10 27.00 14 <
-1 7 9 579.35 587.60 33.50 14 o
-2 11 9 8.47 20.20 25.70 14 <
4 -7 10 18.84 10.10 26.20 14 <
3 -4 10 79.78 48.20 28.10 14 <
2 -1 10 99.14 140.70 30.00 14 o
1 2 10 1439.40 1764.20 42.00 14 o
-1 8 10 639.45 658.30 33.10 14 o
-2 11 10 198.58 166.20 27.80 14 o
4 -6 11 239.72 237.80 28.70 14 o
1 2 11 219.51 308.50 31.00 14 o
-1 8 11 19.77 31.90 27.50 14 <
-2 11 11 43.63 14.60 26.00 14 <
4 -6 12 41.06 42.40 26.00 14 <
3 -3 12 1592.80 1554.80 39.40 14 o
2 0 12 377.24 393.40 31.90 14 o
1 3 12 1040.40 1119.10 37.50 14 o
-1 9 12 140.51 164.10 27.10 14 o
4 -5 13 65.02 42.60 26.20 14 <
2 0 13 124.65 144.00 29.00 14 o
1 3 13 164.51 193.10 29.60 14 o
-1 9 13 9.83 -29.10 26.50 14 <
-1 10 13 6.54 -6.60 26.20 14 <
4 -5 14 27.45 11.90 25.90 14 <
3 -2 14 408.68 302.30 29.90 14 o
2 1 14 2082.70 2165.00 43.60 14 o
1 4 14 184.83 184.40 28.80 14 o
-1 10 14 22.28 43.00 26.10 14 <
4 -4 15 39.29 -7.30 26.50 14 <
3 -2 15 6.00 -39.10 26.50 14 <
2 1 15 8.06 47.00 27.20 14 <
1 4 15 9.22 18.00 27.00 14 <
4 -4 16 7.90 -3.10 25.90 14 <
3 -1 16 105.32 29.70 27.20 14 <
2 2 16 576.16 484.60 30.90 14 o
1 5 16 167.83 96.70 27.50 14 o
4 -3 17 83.52 11.50 26.00 14 <
3 -1 17 14.89 13.80 26.00 14 <
2 2 17 143.41 83.20 27.20 14 o
1 5 17 5.99 19.50 26.20 14 <
2 3 18 62.84 54.10 26.50 14 <
1 6 18 77.55 1.60 25.90 14 <
3 1 19 16.63 -0.50 25.70 14 <
2 3 19 40.91 33.80 25.70 14 <
-1 -5 -19 1.26 -80.70 28.30 15 <
-2 -2 -19 18.30 54.10 28.20 15 <
-3 1 -19 18.36 18.40 28.00 15 <
-1 -5 -18 16.20 4.70 28.10 15 <
-2 -2 -18 22.89 -5.00 28.60 15 <
-2 -1 -18 11.13 6.90 28.60 15 <
-3 2 -18 123.75 127.30 29.40 15 o
-1 -4 -17 7.16 15.00 28.00 15 <
-2 -1 -17 4.25 -33.50 29.10 15 <
-3 2 -17 63.85 -3.10 28.90 15 <
0 -7 -16 23.62 8.60 26.20 15 <
-1 -4 -16 77.78 66.80 27.20 15 <
-2 -1 -16 1072.60 1030.80 37.20 15 o
-3 3 -16 734.52 655.80 34.50 15 o
-4 6 -16 74.94 13.90 27.70 15 <
1 -9 -15 4.58 21.50 26.30 15 <
-1 -3 -15 205.33 254.40 29.30 15 o
-2 0 -15 94.37 103.70 29.90 15 o
-3 3 -15 313.27 295.40 31.80 15 o
-4 6 -15 6.22 -4.00 27.40 15 <
1 -9 -14 1.01 6.80 26.00 15 <
0 -6 -14 137.82 124.50 28.20 15 o
-1 -3 -14 165.19 164.20 28.70 15 o
-2 0 -14 6.74 15.20 29.90 15 <
-3 3 -14 42.83 97.70 30.10 15 o
-4 7 -14 8.96 -3.60 27.60 15 <
1 -9 -13 9.27 5.50 26.40 15 <
-3 4 -13 34.65 -96.40 30.30 15 <
-4 7 -13 42.63 26.40 27.60 15 <
1 -8 -12 55.85 48.40 26.70 15 <
0 -5 -12 45.95 86.20 27.30 15 o
-1 -2 -12 1197.70 1300.40 38.50 15 o
-2 1 -12 345.22 274.60 32.70 15 o
-3 4 -12 523.44 571.10 34.00 15 o
-4 8 -12 50.99 37.40 27.90 15 <
2 -11 -11 28.81 22.50 26.70 15 <
1 -8 -11 15.80 -10.60 26.70 15 <
-1 -2 -11 163.74 180.10 30.40 15 o
-3 5 -11 99.48 57.90 29.90 15 <
-4 8 -11 19.72 58.20 27.80 15 <
2 -10 -10 562.63 471.50 30.70 15 o
-2 2 -10 914.01 876.30 35.90 15 o
-3 5 -10 218.49 150.30 31.30 15 o
-4 8 -10 177.29 193.00 30.20 15 o
-4 9 -10 132.53 45.80 28.80 15 <
2 -10 -9 0.91 10.10 26.70 15 <
1 -7 -9 384.89 337.40 30.90 15 o
-1 -1 -9 485.46 467.50 33.60 15 o
-3 6 -9 40.76 7.70 30.00 15 <
-4 9 -9 3.94 -16.60 28.60 15 <
3 -12 -8 26.93 -0.80 26.50 15 <
2 -10 -8 157.96 92.50 27.70 15 o
-2 3 -8 6641.10 7612.00 71.20 15 o
-3 6 -8 8.48 53.20 30.80 15 <
-4 9 -8 29.63 92.20 28.40 15 o
-4 10 -8 28.99 -0.80 28.20 15 <
3 -12 -7 0.59 19.60 26.40 15 <
2 -9 -7 174.13 181.10 28.60 15 o
1 -6 -7 145.58 153.20 29.40 15 o
-2 3 -7 241.53 154.70 36.20 15 o
-4 10 -7 13.44 -3.50 28.40 15 <
3 -12 -6 152.73 51.50 27.10 15 <
2 -9 -6 311.84 221.80 29.70 15 o
1 -6 -6 107.67 101.10 29.10 15 o
-3 7 -6 135.02 139.90 31.20 15 o
-4 10 -6 64.11 29.40 28.90 15 <
3 -11 -5 13.03 31.20 26.30 15 <
2 -8 -5 248.42 274.50 30.70 15 o
-1 1 -5 636.46 616.90 44.70 15 o
-2 4 -5 7.62 -104.40 32.40 15 <
-4 11 -5 53.03 24.00 28.40 15 <
3 -11 -4 137.49 23.70 27.30 15 <
2 -8 -4 130.35 168.90 29.30 15 o
1 -5 -4 2335.70 2512.20 49.50 15 o
-3 8 -4 11.95 4.30 28.30 15 <
-4 11 -4 70.15 53.40 28.50 15 <
3 -10 -3 25.58 -15.40 27.00 15 <
-2 5 -3 10.09 65.20 31.30 15 <
-3 8 -3 768.76 610.00 32.90 15 o
-4 12 -3 19.69 23.10 27.90 15 <
3 -10 -2 147.77 172.20 27.80 15 o
2 -7 -2 195.22 208.70 30.50 15 o
1 -4 -2 158.35 362.00 39.70 15 o
-3 9 -2 220.07 216.90 28.90 15 o
-4 12 -2 123.56 74.00 29.00 15 <
4 -12 -1 4.31 -36.30 26.40 15 <
-2 6 -1 4.90 -33.70 29.00 15 <
-3 9 -1 36.97 24.80 26.80 15 <
4 -12 0 63.07 24.60 26.20 15 <
2 -6 0 23.44 20.00 29.10 15 <
-3 10 0 8.94 -5.50 26.40 15 <
4 -12 1 5.09 -32.80 25.80 15 <
3 -9 1 38.08 18.20 26.50 15 <
-2 7 1 8.92 -77.90 29.10 15 <
-3 10 1 302.35 362.50 29.50 15 o
4 -11 2 43.60 43.90 26.40 15 <
3 -8 2 34.38 45.50 27.60 15 <
-1 4 2 187.81 373.30 39.50 15 o
-3 11 2 13.52 -49.30 27.00 15 <
4 -11 3 34.32 -12.10 26.00 15 <
3 -8 3 511.37 435.40 31.30 15 o
2 -5 3 15.92 -39.30 31.00 15 <
-2 8 3 112.91 90.00 29.50 15 o
-3 11 3 40.39 12.80 26.50 15 <
4 -10 4 442.96 226.20 28.40 15 o
3 -7 4 1771.00 1772.40 40.70 15 o
-1 5 4 2411.70 2518.00 49.30 15 o
-3 12 4 267.99 171.20 28.50 15 o
4 -10 5 10.64 -65.20 26.00 15 <
3 -7 5 141.51 139.70 29.10 15 o
2 -4 5 4.49 -0.60 32.60 15 <
-2 9 5 480.76 462.50 31.40 15 o
-3 12 5 133.20 66.20 26.70 15 <
4 -9 6 32.91 59.50 26.10 15 <
-1 6 6 96.34 15.00 29.80 15 <
4 -9 7 19.06 -0.30 26.70 15 <
3 -6 7 367.09 311.30 30.80 15 o
2 -3 7 215.93 142.60 32.10 15 o
-2 10 7 40.46 46.90 27.30 15 <
4 -8 8 441.68 301.90 29.70 15 o
-1 7 8 52.38 38.60 28.60 15 <
-2 10 8 153.43 108.90 26.90 15 o
-2 11 8 14.03 -18.80 26.50 15 <
4 -8 9 106.48 23.40 26.40 15 <
3 -5 9 444.98 175.90 32.90 15 o
2 -2 9 91.76 -47.10 29.90 15 <
1 1 9 470.38 527.10 34.60 15 o
-1 8 9 64.88 23.70 28.20 15 <
-2 11 9 6.23 14.80 25.90 15 <
4 -8 10 183.04 87.20 26.70 15 o
-1 8 10 710.82 684.20 33.60 15 o
-2 11 10 312.91 214.30 27.30 15 o
4 -7 11 157.56 96.10 26.80 15 o
3 -4 11 106.60 16.50 27.90 15 <
2 -1 11 20.90 -13.90 28.40 15 <
1 2 11 144.76 159.70 30.70 15 o
-1 9 11 10.24 -26.90 26.60 15 <
4 -7 12 48.83 -119.20 27.00 15 <
1 3 12 1215.10 1439.20 39.20 15 o
-1 9 12 125.05 130.80 27.00 15 o
4 -6 13 21.75 9.60 26.30 15 <
3 -3 13 292.05 264.30 29.70 15 o
2 0 13 105.39 108.20 28.30 15 o
1 3 13 98.90 109.90 29.00 15 o
-1 10 13 6.94 3.10 26.20 15 <
4 -6 14 46.31 8.50 25.80 15 <
3 -3 14 37.35 1.20 27.60 15 <
1 4 14 336.40 371.90 30.60 15 o
-1 10 14 28.23 1.80 26.70 15 <
4 -5 15 10.86 -6.30 26.00 15 <
3 -2 15 7.87 -2.10 26.90 15 <
2 1 15 3.65 48.50 28.00 15 <
1 4 15 8.25 2.70 26.60 15 <
4 -5 16 36.60 20.30 25.80 15 <
3 -2 16 88.16 72.30 27.00 15 <
2 2 16 868.09 747.40 32.80 15 o
1 5 16 143.77 78.70 27.40 15 <
4 -4 17 19.50 22.90 26.00 15 <
3 -1 17 8.50 17.90 25.60 15 <
2 2 17 124.52 37.10 27.30 15 <
1 5 17 3.54 1.50 25.90 15 <
3 -1 18 24.27 13.30 26.10 15 <
2 3 18 41.28 30.70 26.00 15 <
1 6 18 37.81 100.20 26.20 15 o
2 3 19 23.44 23.80 25.80 15 <
-1 -5 -19 0.66 -10.60 28.30 16 <
-2 -2 -19 28.05 72.20 28.30 16 <
-2 -1 -19 1.71 69.20 28.00 16 <
-3 2 -19 47.71 12.80 28.10 16 <
-1 -4 -18 137.27 67.30 28.80 16 <
-2 -1 -18 25.08 11.20 28.30 16 <
-3 2 -18 180.21 145.30 29.40 16 o
-1 -4 -17 3.66 -53.70 27.60 16 <
-2 -1 -17 7.26 -2.10 28.90 16 <
-3 3 -17 8.93 13.40 28.60 16 <
-1 -4 -16 133.04 114.60 27.60 16 o
-2 0 -16 233.30 141.20 30.50 16 o
-3 3 -16 553.07 428.60 32.80 16 o
1 -9 -15 4.10 35.70 26.20 16 <
-1 -3 -15 184.66 224.20 28.80 16 o
-2 0 -15 51.92 102.30 30.10 16 o
-3 4 -15 28.12 -23.30 28.90 16 <
-4 7 -15 5.10 -41.10 27.80 16 <
1 -9 -14 1.87 18.10 25.80 16 <
0 -6 -14 116.70 169.20 28.00 16 o
-1 -3 -14 152.24 175.50 28.90 16 o
-2 1 -14 3049.40 2997.80 51.00 16 o
-3 4 -14 46.57 4.60 29.40 16 <
-4 7 -14 23.63 49.80 27.60 16 <
-4 8 -14 19.97 11.20 27.60 16 <
1 -9 -13 8.05 19.90 26.30 16 <
-1 -2 -13 49.27 30.20 28.30 16 <
-2 1 -13 7.11 16.00 31.20 16 <
-3 4 -13 44.26 49.20 30.50 16 <
-4 8 -13 29.52 -14.50 27.90 16 <
1 -8 -12 60.52 30.40 26.80 16 <
0 -5 -12 24.43 31.10 27.70 16 <
-1 -2 -12 1178.80 1313.90 38.50 16 o
-3 5 -12 253.74 202.10 31.30 16 o
-4 8 -12 69.86 -33.30 28.00 16 <
-4 9 -12 10.43 50.20 27.80 16 <
2 -11 -11 29.15 -16.70 26.80 16 <
1 -8 -11 15.38 11.10 27.00 16 <
-2 2 -11 44.26 73.30 30.80 16 <
-3 5 -11 114.77 113.50 30.10 16 o
-4 9 -11 9.78 -28.30 28.40 16 <
2 -11 -10 272.58 194.80 28.10 16 o
-1 -1 -10 19.04 66.40 29.40 16 <
-2 2 -10 1110.90 1011.50 38.40 16 o
-3 6 -10 385.21 370.60 32.90 16 o
-4 9 -10 93.16 87.00 28.50 16 o
2 -10 -9 1.16 10.00 26.50 16 <
1 -7 -9 460.01 436.60 31.40 16 o
-2 3 -9 158.19 126.60 32.80 16 o
-3 6 -9 8.71 34.80 30.30 16 <
-4 10 -9 40.42 22.60 28.60 16 <
2 -10 -8 108.70 74.00 27.00 16 <
1 -7 -8 52.77 70.30 28.30 16 <
-2 3 -8 5573.10 6016.80 64.30 16 o
-3 7 -8 795.90 835.90 37.40 16 o
-4 10 -8 12.38 50.40 28.40 16 <
3 -12 -7 1.59 -23.00 26.10 16 <
1 -6 -7 298.69 164.80 29.60 16 o
-3 7 -7 657.16 833.50 36.90 16 o
-4 11 -7 13.50 50.20 28.30 16 <
3 -12 -6 117.38 72.50 26.70 16 <
2 -9 -6 261.30 230.70 29.80 16 o
1 -6 -6 81.99 115.00 29.30 16 o
-2 4 -6 2790.30 2916.10 50.10 16 o
-3 8 -6 807.90 909.00 36.70 16 o
-4 11 -6 49.71 71.70 28.00 16 <
3 -12 -5 140.92 31.60 26.60 16 <
2 -9 -5 577.56 552.30 32.00 16 o
-1 1 -5 498.27 496.30 44.30 16 o
-3 8 -5 176.25 130.20 30.80 16 o
-4 12 -5 42.40 49.50 27.80 16 <
3 -11 -4 100.69 45.50 27.20 16 <
2 -8 -4 167.83 130.30 29.10 16 o
1 -5 -4 2116.10 2482.80 49.90 16 o
-2 5 -4 226.90 255.10 33.20 16 o
-4 12 -4 27.02 -42.20 28.50 16 <
3 -11 -3 28.64 70.50 26.20 16 <
2 -8 -3 108.83 151.20 28.90 16 o
-1 2 -3 1195.00 1042.30 55.80 16 o
-3 9 -3 98.66 57.60 28.40 16 <
-4 12 -3 32.79 70.10 28.10 16 <
3 -10 -2 212.72 248.80 28.80 16 o
1 -4 -2 248.32 332.50 41.80 16 o
-2 6 -2 295.05 394.40 33.30 16 o
-3 9 -2 405.07 344.00 30.20 16 o
3 -10 -1 215.64 162.20 29.10 16 o
2 -7 -1 3.30 -39.80 27.80 16 <
-1 3 -1 2131.10 1966.20 57.40 16 o
-3 10 -1 252.89 284.70 29.10 16 o
3 -10 0 3.84 7.20 27.10 16 <
-3 10 0 5.63 -28.20 26.40 16 <
4 -12 1 5.57 -19.30 25.50 16 <
3 -9 1 21.38 -14.80 26.80 16 <
2 -6 1 3.40 -16.20 30.10 16 <
-1 4 1 3510.30 3144.50 57.70 16 o
-2 7 1 26.35 -2.30 28.70 16 <
-3 11 1 3.49 -34.00 26.60 16 <
4 -12 2 101.46 39.60 26.50 16 <
3 -9 2 331.24 145.00 28.80 16 o
-2 8 2 1667.80 1662.60 40.90 16 o
-3 11 2 15.94 18.50 26.60 16 <
-3 12 2 173.80 93.40 27.10 16 o
4 -11 3 34.72 6.50 25.50 16 <
3 -8 3 602.57 453.90 31.90 16 o
2 -5 3 4.87 71.90 32.10 16 <
1 -2 3 1318.50 1284.60 56.40 16 o
-1 5 3 41.28 9.80 35.70 16 <
-2 8 3 115.73 94.90 29.90 16 o
-3 12 3 157.66 158.60 27.00 16 o
4 -11 4 50.36 24.70 26.40 16 <
3 -8 4 12.16 53.60 27.90 16 <
-2 9 4 440.20 422.40 31.00 16 o
-3 12 4 370.18 227.90 28.80 16 o
4 -10 5 17.57 23.60 25.90 16 <
3 -7 5 197.75 194.30 29.20 16 o
2 -4 5 6.68 -25.40 33.00 16 <
1 -1 5 458.25 447.60 44.50 16 o
-1 6 5 56.14 35.90 30.80 16 <
-2 9 5 542.33 620.50 32.50 16 o
4 -10 6 56.06 35.10 26.50 16 <
3 -7 6 85.46 73.80 29.00 16 <
2 -4 6 3936.30 4179.60 56.30 16 o
-1 6 6 132.38 142.20 29.80 16 o
-2 10 6 32.51 4.30 26.90 16 <
4 -10 7 16.58 -28.00 25.90 16 <
-1 7 7 387.12 372.50 31.10 16 o
-2 10 7 59.95 -29.50 26.80 16 <
4 -9 8 24.65 23.60 25.80 16 <
3 -6 8 16.85 -6.90 28.00 16 <
2 -3 8 5840.90 5982.90 64.40 16 o
-1 7 8 62.45 114.40 28.60 16 o
-2 11 8 18.91 37.70 26.20 16 <
4 -9 9 0.90 -11.50 25.50 16 <
1 1 9 504.62 446.50 34.00 16 o
-1 8 9 84.12 36.00 28.00 16 <
-2 11 9 2.64 -5.10 25.90 16 <
-2 12 9 32.73 -10.90 25.70 16 <
4 -8 10 132.15 96.50 26.60 16 o
3 -5 10 229.58 75.50 29.10 16 <
2 -2 10 976.00 681.40 35.10 16 o
-1 8 10 640.06 930.40 34.80 16 o
4 -8 11 16.92 15.60 25.60 16 <
3 -5 11 145.81 107.00 28.00 16 o
1 2 11 184.26 153.60 30.60 16 o
-1 9 11 2.33 -89.70 26.90 16 <
4 -7 12 46.79 55.90 26.10 16 <
3 -4 12 490.49 412.50 31.50 16 o
2 -1 12 679.96 539.00 32.50 16 o
-1 9 12 169.87 228.90 27.10 16 o
4 -7 13 50.38 16.60 25.80 16 <
3 -4 13 41.69 66.00 27.40 16 <
2 0 13 166.79 168.60 29.00 16 o
1 3 13 172.16 113.40 28.70 16 o
-1 10 13 1.76 14.50 26.10 16 <
4 -6 14 42.71 22.50 25.70 16 <
3 -3 14 40.84 25.70 27.90 16 <
2 0 14 44.72 -19.40 27.90 16 <
-1 10 14 20.23 24.20 26.50 16 <
4 -6 15 2.52 -4.30 25.90 16 <
3 -3 15 400.22 320.50 29.50 16 o
2 1 15 3.24 34.50 26.70 16 <
1 4 15 5.25 0.40 26.90 16 <
4 -5 16 31.02 -2.00 25.70 16 <
3 -2 16 95.94 48.20 26.80 16 <
2 1 16 724.50 818.00 33.80 16 o
1 4 16 156.00 181.90 27.50 16 o
1 5 16 178.00 135.00 27.70 16 o
0 8 16 11.19 -13.70 26.40 16 <
3 -2 17 54.08 49.80 26.30 16 <
2 2 17 153.04 35.60 27.40 16 <
1 5 17 8.34 -13.60 26.10 16 <
3 -1 18 39.16 -32.10 26.00 16 <
2 2 18 21.40 21.60 26.20 16 <
1 5 18 33.80 12.50 26.10 16 <
1 6 18 64.53 29.10 26.40 16 <
3 -1 19 10.89 34.30 25.90 16 <
2 3 19 28.96 5.10 25.70 16 <
-1 -5 -19 1.95 -52.60 28.10 17 <
-1 -4 -19 4.34 -28.40 28.40 17 <
-2 -1 -19 2.90 -24.40 28.70 17 <
-3 2 -19 60.81 -13.60 28.40 17 <
-1 -4 -18 101.65 55.30 28.70 17 <
-2 -1 -18 20.29 19.50 28.50 17 <
-3 3 -18 27.04 27.50 28.60 17 <
-1 -4 -17 5.69 -20.30 27.50 17 <
-2 0 -17 5.11 -49.90 28.80 17 <
-3 3 -17 8.43 -27.50 28.70 17 <
-3 4 -17 95.68 48.20 28.90 17 <
-1 -3 -16 319.52 241.20 30.90 17 o
-2 0 -16 185.49 121.80 30.20 17 o
-3 4 -16 11.17 16.80 28.80 17 <
-1 -3 -15 181.76 179.60 28.80 17 o
-2 1 -15 11.44 -46.60 30.50 17 <
-3 4 -15 16.48 26.60 29.30 17 <
1 -9 -14 2.99 17.10 26.20 17 <
0 -6 -14 132.77 134.60 28.60 17 o
-2 1 -14 1781.40 1951.70 44.50 17 o
-3 5 -14 861.09 841.60 36.40 17 o
-4 8 -14 17.23 19.90 27.70 17 <
1 -9 -13 9.64 5.70 26.60 17 <
-1 -2 -13 33.75 -4.10 28.60 17 <
-3 5 -13 53.40 35.50 30.30 17 <
1 -8 -12 39.60 65.40 27.00 17 <
0 -5 -12 42.76 50.10 28.00 17 <
-1 -2 -12 1542.00 1650.40 41.00 17 o
-2 2 -12 829.36 1006.70 38.30 17 o
-3 5 -12 425.37 369.60 32.70 17 o
-3 6 -12 197.81 162.30 31.00 17 o
-4 9 -12 22.19 22.60 28.20 17 <
2 -11 -11 21.63 34.60 26.60 17 <
1 -8 -11 19.56 44.30 27.10 17 <
-1 -1 -11 179.63 222.70 30.50 17 o
-2 2 -11 50.18 1.10 30.50 17 <
-3 6 -11 6.57 49.40 30.40 17 <
-4 10 -11 15.89 61.60 27.90 17 <
2 -11 -10 260.64 163.10 28.10 17 o
1 -8 -10 724.75 865.20 34.20 17 o
-1 -1 -10 42.77 -38.00 30.40 17 <
-2 3 -10 183.47 243.20 32.60 17 o
-3 6 -10 531.23 442.80 33.40 17 o
-4 10 -10 212.68 189.00 29.60 17 o
2 -11 -9 10.26 -0.20 26.40 17 <
1 -7 -9 396.82 476.40 31.80 17 o
-2 3 -9 118.25 118.00 30.80 17 o
-3 7 -9 1129.40 1121.20 39.90 17 o
-4 10 -9 52.23 56.20 28.90 17 <
2 -10 -8 114.28 106.60 27.60 17 o
1 -7 -8 32.03 89.40 28.80 17 o
-3 7 -8 695.36 648.60 36.90 17 o
-4 11 -8 46.06 21.60 28.70 17 <
2 -10 -7 42.95 -10.60 27.20 17 <
-2 4 -7 65.93 122.20 32.50 17 o
-3 8 -7 106.41 155.60 31.50 17 o
-4 11 -7 9.18 48.30 28.50 17 <
3 -12 -6 184.50 100.80 27.10 17 o
2 -9 -6 296.72 279.70 30.50 17 o
1 -6 -6 92.98 88.30 29.40 17 o
-1 1 -6 6174.00 5842.60 67.20 17 o
-3 8 -6 503.59 694.40 35.20 17 o
3 -12 -5 120.56 64.80 26.90 17 <
2 -9 -5 451.87 462.10 31.90 17 o
-2 5 -5 53.40 -61.00 31.90 17 <
-3 9 -5 31.74 37.00 30.10 17 <
-4 12 -5 43.89 -9.80 28.20 17 <
3 -12 -4 344.32 124.40 28.20 17 o
1 -5 -4 2742.10 2873.50 51.30 17 o
-3 9 -4 234.71 180.90 31.30 17 o
3 -11 -3 42.30 6.70 26.70 17 <
2 -8 -3 107.51 65.30 30.00 17 <
1 -5 -3 23.76 -9.90 35.10 17 <
-2 6 -3 21.21 -95.40 30.40 17 <
-3 10 -3 13.53 28.50 28.30 17 <
3 -11 -2 5.77 12.30 26.60 17 <
2 -8 -2 2022.70 2436.20 45.00 17 o
-2 6 -2 660.96 650.10 35.10 17 o
-3 10 -2 209.58 187.20 29.40 17 o
3 -11 -1 7.75 -20.30 26.10 17 <
2 -7 -1 3.80 -39.40 28.60 17 <
1 -4 -1 3148.70 3039.00 56.30 17 o
-1 3 -1 2066.20 1778.90 57.70 17 o
-2 7 -1 5.66 -12.60 28.90 17 <
-3 11 -1 7.77 -19.90 27.00 17 <
3 -10 0 6.65 43.80 26.50 17 <
3 -10 1 261.82 343.00 29.90 17 o
1 -3 1 1643.20 1382.30 56.80 17 o
-1 4 1 3074.40 2673.70 55.90 17 o
-2 8 1 9.60 47.50 28.50 17 <
-3 11 1 7.93 -3.90 26.80 17 <
-3 12 1 13.82 20.70 26.00 17 <
4 -12 2 151.19 92.20 26.60 17 o
3 -9 2 196.66 133.60 27.90 17 o
2 -6 2 259.10 349.10 32.70 17 o
-2 8 2 1693.60 1852.30 41.50 17 o
-3 12 2 89.39 25.30 26.70 17 <
4 -12 3 9.29 31.10 25.80 17 <
3 -9 3 107.08 39.80 27.60 17 <
1 -2 3 1340.40 1233.10 57.90 17 o
-1 5 3 20.33 61.20 34.90 17 <
-2 9 3 54.39 59.20 28.20 17 <
-3 12 3 249.19 118.30 27.40 17 o
-3 13 3 125.59 4.80 26.40 17 <
4 -12 4 35.06 54.80 26.20 17 <
3 -8 4 24.38 25.50 27.40 17 <
2 -5 4 128.16 259.30 32.00 17 o
-2 9 4 498.13 398.10 31.70 17 o
4 -11 5 44.69 25.70 26.30 17 <
3 -8 5 164.99 138.90 28.00 17 o
-1 6 5 112.13 111.00 31.00 17 o
-2 10 5 100.55 30.20 27.70 17 <
4 -11 6 49.40 29.10 26.20 17 <
2 -4 6 2823.10 2890.10 50.20 17 o
-2 10 6 34.56 16.70 27.00 17 <
4 -10 7 12.39 36.40 25.70 17 <
3 -7 7 556.73 624.30 32.90 17 o
-1 7 7 343.66 307.00 31.10 17 o
-2 11 7 49.19 34.20 26.50 17 <
4 -10 8 15.57 40.10 25.50 17 <
2 -3 8 5921.70 5848.30 64.10 17 o
-2 11 8 5.25 -26.80 26.30 17 <
4 -9 9 3.05 -24.20 25.40 17 <
3 -6 9 17.09 39.80 27.60 17 <
2 -3 9 120.84 142.70 31.90 17 o
1 1 9 664.37 551.20 36.60 17 o
-1 8 9 46.05 13.90 28.20 17 <
-2 12 9 25.68 -10.40 25.90 17 <
4 -9 10 81.83 70.50 26.20 17 <
3 -6 10 560.84 495.10 31.60 17 o
2 -2 10 1101.80 847.70 36.40 17 o
1 1 10 28.78 63.20 30.40 17 <
-1 8 10 871.06 892.10 34.80 17 o
-1 9 10 631.62 744.50 32.70 17 o
4 -9 11 3.13 -43.00 25.90 17 <
4 -8 11 22.96 15.00 25.90 17 <
3 -5 11 106.29 74.60 27.80 17 <
2 -2 11 40.26 -10.40 28.30 17 <
1 2 11 163.29 161.60 30.20 17 o
-1 9 11 3.42 -26.80 26.50 17 <
4 -8 12 36.43 43.50 25.50 17 <
3 -5 12 301.92 216.40 29.00 17 o
2 -1 12 426.18 456.10 31.10 17 o
1 2 12 1254.40 1693.40 41.00 17 o
-1 9 12 198.09 154.10 27.00 17 o
-1 10 12 27.01 41.10 26.30 17 <
4 -8 13 33.48 34.20 25.60 17 <
4 -7 13 66.71 -8.60 25.70 17 <
3 -4 13 34.93 -10.50 27.00 17 <
2 -1 13 6.73 21.70 27.90 17 <
1 3 13 107.07 82.50 28.70 17 <
-1 10 13 2.22 12.50 26.20 17 <
4 -7 14 15.50 -11.30 25.40 17 <
3 -4 14 110.94 7.60 26.60 17 <
2 0 14 10.13 38.00 27.90 17 <
1 3 14 124.00 92.90 28.60 17 o
-1 10 14 26.74 29.70 26.90 17 <
4 -7 15 6.19 56.60 25.90 17 <
4 -6 15 3.24 -13.60 25.80 17 <
3 -3 15 297.16 208.40 29.00 17 o
2 0 15 61.58 83.80 27.10 17 o
1 4 15 3.98 -0.20 26.80 17 <
4 -6 16 50.56 29.50 25.90 17 <
3 -3 16 430.28 418.40 30.30 17 o
2 1 16 960.76 812.20 34.00 17 o
1 4 16 36.06 31.40 27.10 17 <
0 8 16 10.23 30.20 26.20 17 <
3 -2 17 71.32 26.00 26.30 17 <
2 1 17 4.28 -21.00 26.80 17 <
1 5 17 3.09 -20.90 26.20 17 <
3 -2 18 146.74 100.70 26.60 17 o
2 2 18 16.20 23.00 26.30 17 <
1 5 18 38.24 -17.80 25.90 17 <
3 -1 19 19.88 -19.20 26.10 17 <
2 2 19 15.86 0.60 25.70 17 <
-1 -4 -19 10.40 65.80 28.10 18 <
-2 -1 -19 1.90 13.90 28.10 18 <
-2 0 -19 61.24 12.90 28.60 18 <
-1 -4 -18 97.49 88.60 28.80 18 o
-2 0 -18 11.03 10.70 28.10 18 <
-3 4 -18 209.63 119.60 28.60 18 o
-1 -4 -17 9.13 8.10 27.70 18 <
-1 -3 -17 25.14 -2.70 28.50 18 <
-2 0 -17 10.29 -8.70 28.80 18 <
-3 4 -17 48.25 7.00 28.60 18 <
-1 -3 -16 219.76 298.50 30.50 18 o
-2 1 -16 1181.60 922.10 37.10 18 o
-3 4 -16 80.35 82.80 29.30 18 <
-3 5 -16 17.70 -3.30 28.30 18 <
-1 -3 -15 195.40 226.40 28.90 18 o
-2 1 -15 4.28 -96.40 30.90 18 <
-3 5 -15 5.37 -31.10 28.60 18 <
1 -10 -14 18.58 17.90 26.60 18 <
1 -9 -14 15.35 -7.20 26.40 18 <
0 -6 -14 128.14 150.20 28.30 18 o
-1 -2 -14 1031.30 1220.30 37.80 18 o
-2 1 -14 2785.20 3249.70 51.80 18 o
-3 5 -14 859.63 833.60 35.30 18 o
1 -9 -13 8.45 30.30 26.50 18 <
-1 -2 -13 55.50 34.00 29.10 18 <
-2 2 -13 161.79 197.60 32.20 18 o
-3 6 -13 33.48 58.20 29.10 18 <
1 -9 -12 126.34 51.20 27.10 18 <
0 -5 -12 95.65 54.10 28.20 18 <
-2 2 -12 1225.30 1137.00 39.20 18 o
-3 6 -12 91.99 90.60 29.80 18 o
1 -8 -11 19.06 -2.10 26.90 18 <
-1 -1 -11 113.39 179.80 30.20 18 o
-2 3 -11 542.53 605.20 34.90 18 o
-3 7 -11 38.60 88.20 29.50 18 <
2 -11 -10 213.03 182.80 28.00 18 o
1 -8 -10 558.35 678.00 32.70 18 o
-2 3 -10 277.76 404.50 33.30 18 o
-3 7 -10 89.45 100.20 31.20 18 o
2 -11 -9 1.58 21.80 26.60 18 <
-3 8 -9 44.85 73.80 30.30 18 <
2 -11 -8 27.97 34.40 26.80 18 <
1 -7 -8 38.53 49.40 28.60 18 <
-2 4 -8 1019.70 1095.20 37.30 18 o
-3 8 -8 697.47 633.90 34.70 18 o
2 -10 -7 46.89 19.10 27.00 18 <
1 -7 -7 476.62 456.10 32.10 18 o
-3 8 -7 141.45 129.20 31.80 18 o
-3 9 -7 344.37 299.40 31.60 18 o
2 -10 -6 7.81 -26.20 27.10 18 <
1 -6 -6 111.95 144.30 29.30 18 o
-1 1 -6 5547.70 5019.80 63.80 18 o
-2 5 -6 3713.30 3573.40 53.50 18 o
-3 9 -6 188.83 207.00 31.40 18 o
2 -9 -5 670.71 594.60 33.00 18 o
1 -6 -5 93.96 64.10 30.30 18 <
-3 9 -5 62.08 69.10 29.60 18 <
3 -12 -4 370.74 84.80 28.00 18 o
2 -9 -4 422.45 296.00 30.50 18 o
-1 2 -4 207.81 132.50 44.70 18 <
-2 6 -4 108.62 148.80 31.40 18 o
-3 10 -4 170.41 121.50 29.60 18 o
3 -12 -3 160.31 162.50 27.50 18 o
1 -5 -3 23.25 -57.60 35.20 18 <
-2 6 -3 33.34 47.60 29.80 18 <
-3 10 -3 24.08 34.20 28.20 18 <
3 -12 -2 134.25 98.80 27.00 18 o
2 -8 -2 1736.60 1619.60 40.60 18 o
-1 3 -2 10958.00 14711.30 100.80 18 o
-2 7 -2 484.54 644.70 33.90 18 o
-3 11 -2 37.53 14.50 27.80 18 <
3 -11 -1 4.46 -52.50 26.20 18 <
2 -8 -1 5.73 69.20 27.90 18 <
1 -4 -1 3130.50 2944.00 56.90 18 o
-2 7 -1 7.57 -41.70 29.40 18 <
-3 11 -1 8.70 7.20 26.70 18 <
-3 12 -1 16.02 11.90 27.20 18 <
-1 4 0 10547.00 9862.30 83.70 18 o
-2 8 0 504.13 455.20 33.00 18 o
-3 12 0 47.80 132.30 26.70 18 o
3 -10 1 305.56 301.90 29.10 18 o
2 -7 1 8.54 70.70 28.50 18 <
-2 8 1 5.06 17.50 29.00 18 <
-3 12 1 7.70 36.10 26.20 18 <
-3 13 1 9.67 9.60 25.90 18 <
3 -10 2 208.23 193.10 28.50 18 o
-1 5 2 3981.00 4588.90 61.60 18 o
-2 9 2 109.90 154.80 29.50 18 o
-3 13 2 25.12 35.20 26.00 18 <
3 -9 3 156.68 72.10 27.40 18 <
2 -6 3 42.26 10.90 29.80 18 <
-1 5 3 24.63 -57.10 36.10 18 <
-2 9 3 40.72 -3.60 27.90 18 <
-3 13 3 100.22 10.70 26.10 18 <
4 -12 4 17.94 29.40 26.30 18 <
3 -9 4 247.23 175.00 28.20 18 o
1 -2 4 134.17 264.30 44.20 18 o
-1 6 4 42.21 266.60 32.50 18 o
-2 10 4 1632.50 1655.10 39.70 18 o
4 -12 5 19.56 89.80 25.80 18 o
3 -9 5 20.60 0.90 26.80 18 <
2 -5 5 59.02 64.80 31.40 18 <
-1 6 5 93.83 72.60 30.70 18 <
-2 10 5 59.29 15.60 27.60 18 <
4 -11 6 32.77 15.90 26.10 18 <
3 -8 6 479.40 471.30 31.70 18 o
1 -1 6 5511.30 4947.70 64.30 18 o
-1 7 6 376.69 490.00 33.00 18 o
-2 11 6 73.67 45.20 26.60 18 <
4 -11 7 14.05 46.30 25.40 18 <
3 -8 7 115.83 59.20 28.60 18 <
2 -4 7 117.66 71.30 31.90 18 <
-1 7 7 401.89 364.00 31.90 18 o
-2 11 7 64.79 49.90 26.20 18 <
4 -11 8 63.26 32.90 26.10 18 <
3 -7 8 585.16 483.40 33.40 18 o
-1 8 8 1249.40 1080.10 36.30 18 o
-2 12 8 36.09 18.60 26.00 18 <
4 -10 9 21.44 22.50 25.80 18 <
3 -7 9 1238.70 1253.50 38.70 18 o
2 -3 9 160.38 85.70 30.50 18 <
-1 8 9 68.14 2.00 28.20 18 <
-2 12 9 7.82 11.10 25.60 18 <
4 -10 10 225.37 166.50 26.90 18 o
3 -6 10 471.08 342.70 29.90 18 o
2 -3 10 178.29 366.30 30.70 18 o
1 1 10 238.33 110.80 30.40 18 o
-1 9 10 318.84 383.60 30.00 18 o
4 -9 11 2.89 9.70 25.90 18 <
3 -6 11 9.21 -7.20 27.00 18 <
2 -2 11 23.49 17.00 28.80 18 <
-1 9 11 2.34 -34.90 26.90 18 <
4 -9 12 15.48 -8.40 25.60 18 <
3 -5 12 274.52 127.70 28.60 18 o
2 -2 12 1169.00 1017.30 36.30 18 o
1 2 12 1177.80 1311.20 38.00 18 o
-1 10 12 13.03 25.10 26.30 18 <
4 -8 13 22.23 21.80 25.60 18 <
3 -5 13 74.96 5.10 27.40 18 <
2 -1 13 21.80 32.50 28.60 18 <
-1 10 13 2.40 -4.40 26.40 18 <
4 -8 14 8.51 -2.40 25.30 18 <
3 -4 14 57.25 61.00 26.70 18 <
2 -1 14 2079.00 2138.20 43.50 18 o
1 3 14 149.59 193.20 29.00 18 o
4 -7 15 5.04 -33.40 25.70 18 <
3 -4 15 23.46 20.70 26.20 18 <
2 0 15 46.88 18.00 27.80 18 <
1 4 15 8.35 36.90 27.10 18 <
3 -3 16 566.61 476.00 30.60 18 o
2 0 16 334.96 223.20 28.90 18 o
1 4 16 90.25 74.60 27.00 18 <
0 8 16 12.93 3.00 26.20 18 <
3 -3 17 4.55 11.80 25.90 18 <
2 1 17 3.35 12.90 26.50 18 <
1 5 17 1.70 23.60 25.90 18 <
3 -2 18 161.78 67.60 26.10 18 <
2 1 18 22.43 18.00 26.40 18 <
1 5 18 20.39 -15.10 26.00 18 <
3 -2 19 34.59 32.30 25.50 18 <
2 2 19 10.47 -22.60 26.10 18 <
-2 0 -20 14.76 8.20 28.00 19 <
-1 -4 -19 1.56 10.80 28.70 19 <
-2 0 -19 39.51 65.50 28.40 19 <
-1 -4 -18 109.47 51.90 28.70 19 <
-1 -3 -18 18.67 32.40 28.60 19 <
-2 0 -18 13.99 5.00 28.00 19 <
-2 1 -18 13.76 -5.60 28.20 19 <
-3 4 -18 147.29 98.00 28.10 19 o
-1 -3 -17 15.32 34.10 28.40 19 <
-2 1 -17 4.52 11.10 28.60 19 <
-3 5 -17 3.09 -30.90 27.30 19 <
-1 -3 -16 228.14 246.90 30.00 19 o
-2 1 -16 785.43 812.10 35.80 19 o
-3 5 -16 14.70 -33.80 28.50 19 <
-3 6 -16 31.36 29.20 27.50 19 <
-1 -2 -15 7.50 49.60 28.30 19 <
-2 2 -15 100.38 74.90 30.30 19 <
-3 6 -15 10.23 31.40 28.10 19 <
1 -10 -14 13.92 19.60 26.20 19 <
0 -6 -14 119.56 149.40 28.10 19 o
-1 -2 -14 850.13 907.10 35.20 19 o
-2 2 -14 335.02 462.30 33.30 19 o
-3 6 -14 15.50 21.00 28.60 19 <
1 -9 -13 5.62 12.10 26.30 19 <
-1 -2 -13 56.75 -7.80 28.10 19 <
-2 2 -13 251.98 186.20 32.20 19 o
-3 7 -13 5.39 13.60 27.60 19 <
1 -9 -12 89.19 60.80 27.00 19 <
0 -5 -12 17.21 82.30 27.40 19 o
-1 -1 -12 178.96 111.20 29.20 19 o
-2 3 -12 22.24 3.70 30.50 19 <
-3 7 -12 266.68 254.00 30.90 19 o
1 -9 -11 5.59 37.30 26.00 19 <
-1 -1 -11 187.01 209.10 29.90 19 o
-2 3 -11 469.24 570.80 33.90 19 o
-3 7 -11 57.50 3.40 28.90 19 <
-3 8 -11 14.09 25.90 28.20 19 <
1 -8 -10 634.69 767.80 33.30 19 o
0 -4 -10 375.59 497.50 33.00 19 o
-2 4 -10 119.90 48.70 30.80 19 <
-3 8 -10 57.36 20.00 28.70 19 <
2 -12 -9 19.13 9.30 26.60 19 <
2 -11 -9 2.56 21.00 26.30 19 <
1 -8 -9 54.15 53.00 27.80 19 <
-2 4 -9 282.05 252.10 32.10 19 o
-3 8 -9 45.80 -52.70 29.20 19 <
-3 9 -9 1.98 -4.20 28.60 19 <
2 -11 -8 6.67 -57.60 27.10 19 <
1 -7 -8 92.24 170.20 29.90 19 o
-2 5 -8 53.91 23.70 30.80 19 <
-3 9 -8 365.78 334.80 31.30 19 o
2 -11 -7 43.86 29.60 27.00 19 <
1 -7 -7 352.20 277.50 31.30 19 o
-1 1 -7 140.75 227.90 37.30 19 o
-2 5 -7 524.75 617.40 34.70 19 o
-3 9 -7 261.81 214.50 30.80 19 o
-3 10 -7 13.17 -1.10 28.40 19 <
2 -10 -6 23.85 -5.20 27.20 19 <
-3 10 -6 42.76 2.80 29.00 19 <
2 -10 -5 64.97 76.50 27.90 19 <
1 -6 -5 70.52 -17.50 29.50 19 <
-1 2 -5 57.92 88.40 38.60 19 <
-2 6 -5 1497.70 1565.90 41.80 19 o
-3 10 -5 74.14 97.40 29.50 19 o
-3 11 -5 7.59 7.40 28.10 19 <
2 -9 -4 615.06 515.00 32.30 19 o
1 -6 -4 154.43 266.80 31.50 19 o
-3 11 -4 87.07 38.10 28.60 19 <
3 -13 -3 90.31 2.40 27.00 19 <
2 -9 -3 33.97 20.60 27.80 19 <
1 -5 -3 24.36 -72.00 35.20 19 <
-2 7 -3 112.58 103.60 30.20 19 o
-3 11 -3 34.97 47.20 28.00 19 <
-3 12 -3 245.04 186.90 29.40 19 o
3 -12 -2 99.16 57.00 27.10 19 <
2 -9 -2 159.37 161.00 29.70 19 o
1 -5 -2 3883.90 3747.00 56.40 19 o
-1 3 -2 12534.00 13726.50 97.40 19 o
-2 7 -2 587.15 569.80 34.00 19 o
-3 12 -2 97.76 45.60 28.50 19 <
3 -12 -1 2.92 -56.50 26.70 19 <
2 -8 -1 7.85 74.60 28.60 19 <
-2 8 -1 6.98 7.70 29.00 19 <
-3 12 -1 3.53 32.80 26.40 19 <
-3 13 -1 3.25 9.70 27.50 19 <
3 -12 0 103.61 63.60 26.70 19 <
2 -8 0 339.68 401.30 30.90 19 o
1 -4 0 7219.30 6506.90 72.00 19 o
-1 4 0 7636.00 7025.50 74.30 19 o
-2 8 0 373.09 425.90 31.70 19 o
3 -11 1 1.93 22.60 26.20 19 <
2 -7 1 6.73 42.50 28.60 19 <
-2 9 1 37.63 50.10 27.60 19 <
-3 13 1 2.77 17.20 26.10 19 <
3 -11 2 41.87 33.70 26.70 19 <
2 -7 2 576.02 491.00 32.40 19 o
1 -3 2 8315.80 10233.20 86.70 19 o
-1 5 2 3642.00 3178.20 54.50 19 o
-2 9 2 123.49 179.40 29.30 19 o
3 -10 3 9.18 9.60 26.60 19 <
-2 10 3 24.30 -60.90 27.80 19 <
3 -10 4 177.67 116.70 27.50 19 o
2 -6 4 49.10 92.20 30.90 19 <
1 -2 4 210.37 270.10 44.20 19 o
-1 6 4 330.07 304.70 31.00 19 o
-2 10 4 1427.10 1278.50 37.60 19 o
-2 11 4 17.65 -49.40 27.30 19 <
3 -9 5 24.31 17.90 26.80 19 <
-2 11 5 180.33 137.70 28.30 19 o
3 -9 6 195.14 179.10 28.00 19 o
2 -5 6 3494.60 3356.10 51.90 19 o
1 -1 6 6361.10 6021.10 68.40 19 o
-1 7 6 566.23 581.60 33.60 19 o
-2 11 6 59.42 50.30 26.60 19 <
-2 12 6 76.21 47.80 26.70 19 <
3 -8 7 115.02 80.90 27.80 19 <
-1 8 7 106.29 102.30 28.20 19 o
-2 12 7 23.70 56.00 26.40 19 <
4 -11 8 73.93 35.60 26.10 19 <
3 -8 8 625.82 537.60 32.30 19 o
2 -4 8 1198.80 1067.00 37.00 19 o
-1 8 8 865.08 1001.60 36.00 19 o
-2 12 8 4.88 14.50 26.10 19 <
3 -8 9 74.53 107.00 27.30 19 o
3 -7 9 1734.40 1671.40 40.20 19 o
2 -4 9 234.00 269.30 31.00 19 o
-1 9 9 12.81 19.20 27.40 19 <
3 -7 10 81.04 41.70 27.50 19 <
2 -3 10 143.91 262.50 29.70 19 o
1 1 10 34.12 1.40 29.50 19 <
-1 9 10 450.72 413.80 30.30 19 o
4 -10 11 13.34 8.30 25.90 19 <
3 -7 11 53.34 14.40 26.40 19 <
2 -3 11 463.33 462.20 31.70 19 o
1 1 11 197.44 201.10 30.30 19 o
-1 10 11 30.20 25.00 26.50 19 <
3 -6 12 101.02 35.00 26.80 19 <
2 -2 12 830.69 900.70 35.10 19 o
1 2 12 1243.80 1406.80 39.10 19 o
-1 10 12 15.48 50.20 26.50 19 <
3 -6 13 52.66 -3.00 26.00 19 <
2 -2 13 228.01 154.80 28.70 19 o
1 2 13 46.15 -2.40 28.10 19 <
3 -5 14 713.11 674.90 31.70 19 o
2 -1 14 1869.80 2037.30 42.50 19 o
1 3 14 115.68 99.60 28.30 19 o
3 -5 15 15.80 46.40 26.20 19 <
2 -1 15 9.45 0.90 27.90 19 <
1 3 15 164.23 153.60 28.20 19 o
3 -4 16 20.53 41.60 26.10 19 <
2 0 16 108.76 60.10 27.60 19 <
1 4 16 55.78 9.90 26.60 19 <
0 8 16 14.01 65.50 26.40 19 <
3 -4 17 57.72 45.40 26.40 19 <
3 -3 17 6.40 21.50 25.70 19 <
2 0 17 7.37 -7.00 26.10 19 <
1 4 17 2.59 -16.20 26.00 19 <
1 5 17 5.76 -2.90 26.10 19 <
3 -3 18 16.36 30.30 25.70 19 <
2 1 18 34.94 3.80 26.20 19 <
1 5 18 7.20 22.30 25.70 19 <
3 -2 19 59.22 2.70 25.90 19 <
2 1 19 4.06 -68.30 25.70 19 <
2 2 19 19.97 56.20 25.80 19 <
1 5 19 1.96 29.70 25.20 19 <
-2 0 -20 23.13 32.00 28.50 20 <
-1 -4 -19 3.68 6.30 28.10 20 <
-1 -3 -19 1.79 20.70 28.50 20 <
-2 0 -19 78.51 -36.70 29.00 20 <
-2 1 -19 7.11 -33.60 28.40 20 <
-1 -3 -18 2.99 23.70 28.50 20 <
-2 1 -18 6.89 47.50 28.50 20 <
-1 -3 -17 19.86 19.40 28.60 20 <
-2 1 -17 6.18 81.20 28.80 20 <
-2 2 -17 153.44 127.90 30.40 20 o
-3 6 -17 2.70 28.50 27.70 20 <
0 -6 -16 596.44 435.10 30.90 20 o
-1 -3 -16 385.28 363.80 32.10 20 o
-1 -2 -16 153.28 232.20 31.70 20 o
-2 2 -16 541.72 466.40 33.50 20 o
-3 6 -16 21.07 66.60 27.90 20 <
-3 7 -16 70.26 56.50 28.50 20 <
-1 -2 -15 9.22 17.90 29.00 20 <
-2 2 -15 83.68 58.70 30.60 20 <
-3 7 -15 6.44 31.30 28.20 20 <
1 -10 -14 5.60 -49.90 26.50 20 <
0 -6 -14 157.15 173.50 28.30 20 o
-1 -2 -14 1021.90 1072.20 37.20 20 o
-2 3 -14 112.61 163.80 30.90 20 o
-3 7 -14 8.11 35.20 28.20 20 <
1 -10 -13 3.43 4.60 26.20 20 <
1 -9 -13 17.82 -57.30 27.20 20 <
-1 -1 -13 272.79 282.50 31.70 20 o
-2 3 -13 234.52 326.10 32.40 20 o
-3 7 -13 5.86 -7.20 28.30 20 <
-3 8 -13 14.31 7.10 28.20 20 <
1 -9 -12 83.73 57.80 27.30 20 <
0 -5 -12 37.10 76.40 28.30 20 <
-1 -1 -12 151.51 133.30 29.60 20 o
-2 3 -12 24.41 -39.60 31.10 20 <
-3 8 -12 36.13 24.70 28.70 20 <
1 -9 -11 1.89 10.60 27.00 20 <
-2 4 -11 31.47 20.80 30.70 20 <
-3 8 -11 8.57 -33.90 28.50 20 <
-3 9 -11 25.37 45.60 28.60 20 <
1 -8 -10 547.45 841.00 34.00 20 o
0 -4 -10 405.63 463.80 33.30 20 o
-2 4 -10 61.83 79.20 30.90 20 <
-3 9 -10 19.42 72.60 29.00 20 <
2 -12 -9 6.34 0.80 26.50 20 <
1 -8 -9 48.45 37.00 28.30 20 <
-2 5 -9 478.47 455.20 34.70 20 o
-3 9 -9 7.71 -25.00 29.20 20 <
-3 10 -9 218.69 166.60 30.00 20 o
2 -12 -8 22.72 -3.60 27.30 20 <
2 -11 -8 7.36 -28.80 27.10 20 <
1 -8 -8 1451.60 1714.60 39.90 20 o
-1 1 -8 36.63 189.60 36.10 20 o
-2 5 -8 51.66 42.40 31.20 20 <
-3 10 -8 221.33 222.30 30.10 20 o
2 -11 -7 62.49 64.80 27.00 20 <
1 -7 -7 333.34 325.50 31.60 20 o
-1 1 -7 279.00 291.10 39.20 20 o
-2 6 -7 712.20 765.90 36.70 20 o
-3 10 -7 11.90 -32.50 29.20 20 <
-3 11 -7 61.02 70.50 28.80 20 <
2 -11 -6 49.80 52.30 27.60 20 <
1 -7 -6 376.80 499.10 32.30 20 o
-2 6 -6 25.64 81.00 31.30 20 <
-3 11 -6 294.40 159.00 30.80 20 o
2 -10 -5 65.65 125.20 27.50 20 o
1 -6 -5 100.83 176.20 30.40 20 o
-1 2 -5 83.54 -72.80 43.50 20 <
-2 7 -5 135.61 146.90 30.80 20 o
-3 11 -5 10.11 -48.80 28.80 20 <
2 -10 -4 1462.00 1378.80 38.10 20 o
1 -6 -4 68.57 106.90 31.10 20 o
-2 7 -4 317.51 499.40 32.50 20 o
-3 11 -4 128.93 137.80 29.20 20 o
-3 12 -4 258.72 203.20 30.30 20 o
3 -13 -3 89.53 19.80 26.80 20 <
2 -10 -3 45.56 -14.20 27.60 20 <
-1 3 -3 1225.30 1148.60 49.50 20 o
-3 12 -3 153.55 112.90 29.60 20 o
-3 13 -3 134.51 83.80 28.90 20 <
3 -13 -2 7.53 30.90 25.90 20 <
2 -9 -2 193.57 203.70 29.30 20 o
1 -5 -2 2836.90 3008.30 52.60 20 o
-2 8 -2 1729.40 1691.80 40.70 20 o
-3 12 -2 176.31 118.90 28.70 20 o
-3 13 -2 9.63 13.00 27.90 20 <
3 -13 -1 7.78 11.10 26.10 20 <
3 -12 -1 3.57 46.60 26.30 20 <
2 -9 -1 38.14 13.90 27.60 20 <
-1 4 -1 3146.10 2857.50 57.70 20 o
-2 8 -1 10.22 -27.20 29.00 20 <
-3 13 -1 6.98 -42.80 27.50 20 <
3 -12 0 61.29 51.50 26.60 20 <
2 -8 0 459.53 435.80 31.60 20 o
1 -4 0 10189.00 9620.10 83.30 20 o
3 -12 1 9.46 32.70 26.50 20 <
2 -8 1 47.62 54.00 28.30 20 <
-1 5 1 127.57 46.80 38.30 20 <
-2 9 1 42.17 76.60 27.90 20 <
-2 10 1 25.41 -5.80 27.90 20 <
3 -11 2 18.09 49.90 26.20 20 <
2 -7 2 665.08 600.10 34.20 20 o
-2 10 2 1328.70 1483.80 38.00 20 o
3 -11 3 70.50 6.80 26.70 20 <
2 -7 3 144.08 120.40 30.80 20 o
1 -3 3 1353.00 1465.90 51.30 20 o
-1 6 3 75.95 95.00 31.50 20 o
-2 10 3 59.05 9.50 28.00 20 <
-2 11 3 128.76 55.60 27.40 20 <
3 -11 4 120.61 21.70 26.90 20 <
3 -10 4 258.91 150.30 28.20 20 o
-1 6 4 48.67 128.30 30.80 20 o
-2 11 4 7.35 42.00 27.50 20 <
3 -10 5 70.23 23.20 26.60 20 <
2 -6 5 1667.00 1511.30 43.10 20 o
1 -2 5 75.76 62.40 39.00 20 <
-1 7 5 213.54 202.90 30.50 20 o
-2 11 5 235.98 217.40 28.80 20 o
-2 12 5 71.25 82.70 26.90 20 o
3 -10 6 39.54 -25.40 26.90 20 <
-1 7 6 390.98 571.30 32.80 20 o
-2 12 6 102.63 109.70 26.90 20 o
3 -9 7 238.33 115.70 28.10 20 o
2 -5 7 641.57 572.80 35.40 20 o
1 -1 7 188.17 167.40 37.00 20 o
-1 8 7 89.69 96.60 29.80 20 o
-2 12 7 50.83 158.80 27.00 20 o
3 -9 8 343.52 334.50 29.30 20 o
2 -5 8 33.68 88.00 29.80 20 <
-1 8 8 1100.20 1305.40 38.30 20 o
3 -8 9 39.67 -6.10 27.20 20 <
2 -4 9 171.46 218.00 30.10 20 o
-1 9 9 19.69 45.90 27.70 20 <
3 -8 10 67.11 0.50 26.50 20 <
2 -4 10 57.47 -4.50 28.40 20 <
-1 9 10 544.49 434.30 31.20 20 o
-1 10 10 644.69 502.80 30.90 20 o
3 -7 11 39.36 42.00 26.40 20 <
2 -3 11 478.09 353.70 31.60 20 o
1 1 11 158.15 119.40 30.40 20 o
-1 10 11 32.07 -17.50 26.90 20 <
3 -7 12 300.26 256.90 28.20 20 o
2 -3 12 26.88 7.80 28.40 20 <
-1 10 12 22.67 16.30 26.80 20 <
-1 11 12 14.35 38.90 26.10 20 <
3 -6 13 26.94 22.00 26.00 20 <
2 -2 13 185.27 196.80 29.00 20 o
1 2 13 42.63 53.20 28.90 20 <
3 -6 14 31.86 -19.80 26.20 20 <
2 -2 14 350.76 347.70 30.40 20 o
1 2 14 1260.00 1340.70 37.70 20 o
1 3 14 175.27 198.40 30.10 20 o
3 -6 15 8.79 24.40 25.70 20 <
3 -5 15 5.84 43.50 26.00 20 <
2 -1 15 2.64 -22.90 28.00 20 <
1 3 15 158.23 97.40 28.50 20 o
3 -5 16 26.89 2.60 26.30 20 <
2 -1 16 1043.20 846.50 34.10 20 o
1 3 16 396.96 310.20 29.70 20 o
1 4 16 68.67 51.00 26.90 20 <
0 8 16 5.02 14.80 26.20 20 <
3 -5 17 5.99 7.70 25.40 20 <
3 -4 17 45.32 40.20 26.10 20 <
2 0 17 17.86 20.70 26.10 20 <
1 4 17 3.57 -15.30 26.30 20 <
3 -4 18 111.04 50.50 25.90 20 <
2 0 18 9.25 -7.30 25.90 20 <
1 4 18 151.57 113.60 26.60 20 o
1 5 18 25.98 -19.40 26.20 20 <
2 1 19 3.30 -24.80 25.70 20 <
1 5 19 1.77 4.00 26.30 20 <
-1 -3 -19 1.67 13.20 28.10 21 <
-2 1 -19 6.64 -39.30 27.70 21 <
-2 2 -19 25.63 56.50 27.80 21 <
-1 -3 -18 5.40 42.80 28.20 21 <
-2 1 -18 23.92 26.50 27.90 21 <
-2 2 -18 9.79 -58.30 28.00 21 <
-1 -3 -17 32.04 40.10 28.20 21 <
-1 -2 -17 33.13 10.90 28.60 21 <
-2 2 -17 130.86 60.50 29.30 21 <
0 -6 -16 587.86 403.00 29.20 21 o
-1 -2 -16 127.53 218.80 30.00 21 o
-2 2 -16 586.53 682.50 33.30 21 o
-2 3 -16 101.89 69.30 28.80 21 <
-3 7 -16 50.87 24.40 27.50 21 <
-1 -2 -15 8.62 27.40 27.90 21 <
-2 3 -15 166.38 132.70 30.20 21 o
-3 7 -15 9.83 46.50 27.50 21 <
-3 8 -15 5.46 -49.70 27.30 21 <
1 -10 -14 20.55 -16.00 25.80 21 <
0 -6 -14 112.81 117.00 27.60 21 o
-1 -1 -14 3211.50 3826.60 52.90 21 o
-2 3 -14 102.15 70.30 30.10 21 <
-3 8 -14 99.93 92.10 28.30 21 o
1 -10 -13 1.81 -0.20 25.80 21 <
1 -9 -13 8.35 12.80 26.20 21 <
-1 -1 -13 236.56 198.80 30.60 21 o
-2 4 -13 79.09 90.50 29.40 21 o
-3 8 -13 15.44 4.50 27.80 21 <
-3 9 -13 70.27 56.30 27.50 21 <
1 -9 -12 134.64 62.80 26.90 21 <
0 -5 -12 21.23 49.50 27.50 21 <
-1 -1 -12 161.48 173.80 29.70 21 o
-2 4 -12 132.46 96.60 30.40 21 o
-3 9 -12 187.44 134.00 28.40 21 o
1 -9 -11 2.80 7.80 26.40 21 <
-2 4 -11 54.79 25.70 30.70 21 <
-2 5 -11 36.85 43.70 29.70 21 <
-3 9 -11 15.40 52.00 28.30 21 <
-3 10 -11 62.05 62.40 28.20 21 <
1 -9 -10 524.14 548.70 31.60 21 o
1 -8 -10 662.26 813.50 33.00 21 o
0 -4 -10 268.88 311.70 30.90 21 o
-2 5 -10 90.59 43.90 30.60 21 <
-3 10 -10 54.53 73.70 28.20 21 <
2 -12 -9 10.62 -1.90 26.20 21 <
1 -8 -9 53.49 30.60 27.50 21 <
-1 1 -9 568.97 528.60 33.90 21 o
-2 5 -9 417.97 377.50 33.50 21 o
-3 10 -9 175.76 107.30 29.00 21 o
-3 11 -9 139.32 126.50 28.90 21 o
2 -12 -8 4.75 0.50 26.40 21 <
1 -8 -8 829.96 1039.50 35.50 21 o
-1 1 -8 56.48 109.60 33.70 21 o
-2 6 -8 1080.30 1045.00 38.40 21 o
-3 10 -8 318.65 235.20 29.80 21 o
-3 11 -8 19.25 24.10 27.80 21 <
2 -12 -7 35.38 -9.50 26.50 21 <
2 -11 -7 56.19 38.10 26.70 21 <
1 -7 -7 299.83 326.90 30.60 21 o
-2 6 -7 567.12 684.20 34.80 21 o
-3 11 -7 49.34 3.10 28.30 21 <
-3 12 -7 4.51 5.60 27.80 21 <
2 -11 -6 24.78 18.00 27.00 21 <
1 -7 -6 257.69 324.90 30.70 21 o
-1 2 -6 14407.00 14221.70 93.90 21 o
-2 7 -6 1455.00 1812.80 42.40 21 o
-3 11 -6 311.60 180.80 30.20 21 o
-3 12 -6 115.78 105.80 28.50 21 o
2 -11 -5 209.28 135.30 27.60 21 o
-2 7 -5 103.66 182.10 29.70 21 o
-3 12 -5 107.43 54.60 28.30 21 <
2 -10 -4 1387.60 1380.70 37.40 21 o
1 -6 -4 76.33 66.90 30.30 21 <
-1 3 -4 2011.20 1943.70 49.90 21 o
-2 8 -4 298.46 118.00 29.10 21 o
-3 12 -4 276.47 264.60 29.60 21 o
2 -10 -3 19.54 -23.90 27.40 21 <
1 -6 -3 92.17 44.80 30.80 21 <
-2 8 -3 96.66 82.30 28.60 21 <
-3 13 -3 81.50 47.00 28.40 21 <
3 -13 -2 3.56 2.50 26.10 21 <
2 -10 -2 1584.30 1634.50 39.40 21 o
-2 9 -2 194.53 286.30 29.30 21 o
-3 13 -2 16.17 -41.40 28.00 21 <
3 -13 -1 6.21 40.80 25.80 21 <
2 -9 -1 77.17 10.60 27.20 21 <
1 -5 -1 78.78 -93.70 37.80 21 <
-1 4 -1 3121.50 2696.80 55.10 21 o
-2 9 -1 27.30 -8.90 27.30 21 <
-2 10 0 200.67 154.10 28.20 21 o
3 -13 1 7.65 8.30 26.00 21 <
3 -12 1 2.55 -1.60 26.20 21 <
2 -8 1 10.40 -47.20 27.20 21 <
1 -4 1 2681.50 2278.30 52.50 21 o
-1 5 1 84.55 24.80 35.90 21 <
-2 10 1 26.01 -35.80 27.20 21 <
3 -12 2 79.20 47.20 26.20 21 <
2 -8 2 1437.20 1493.30 39.40 21 o
-2 10 2 1445.10 1275.90 36.20 21 o
-2 11 2 47.80 49.40 26.70 21 <
3 -12 3 179.39 77.60 27.30 21 <
3 -11 3 35.58 -2.60 26.20 21 <
1 -3 3 1175.70 1135.40 47.70 21 o
-1 6 3 62.21 31.60 31.20 21 <
-2 11 3 68.95 60.80 26.60 21 <
3 -11 4 59.59 31.50 26.10 21 <
2 -7 4 520.82 321.60 30.90 21 o
-1 7 4 271.32 479.50 32.60 21 o
-2 11 4 23.31 -51.80 26.50 21 <
-2 12 4 1.40 -36.20 26.20 21 <
3 -11 5 9.58 23.90 26.20 21 <
1 -2 5 53.49 -51.30 41.90 21 <
-1 7 5 150.69 149.60 29.60 21 o
-2 12 5 81.71 38.20 26.70 21 <
3 -10 6 41.80 41.20 25.90 21 <
2 -6 6 17.52 86.00 29.30 21 <
1 -2 6 19105.00 17967.70 102.90 21 o
-1 8 6 853.68 989.20 35.50 21 o
-2 12 6 62.26 48.30 26.20 21 <
-2 13 6 60.57 59.40 26.00 21 <
3 -10 7 3.51 -6.00 25.50 21 <
2 -6 7 598.22 611.40 33.60 21 o
1 -1 7 257.73 324.60 37.90 21 o
-1 8 7 43.78 73.20 28.50 21 <
3 -10 8 311.04 153.40 27.30 21 o
3 -9 8 310.43 286.90 29.00 21 o
2 -5 8 32.58 72.10 29.10 21 <
1 -1 8 38.20 43.80 33.40 21 <
-1 9 8 2111.60 2752.70 46.10 21 o
3 -9 9 3.61 -36.60 26.00 21 <
2 -5 9 393.10 323.60 30.60 21 o
-1 9 9 22.56 71.00 27.40 21 <
3 -9 10 21.66 26.30 25.80 21 <
3 -8 10 62.48 36.90 26.00 21 <
2 -4 10 67.45 -29.80 27.60 21 <
-1 9 10 558.21 372.50 30.00 21 o
-1 10 10 359.73 285.00 28.60 21 o
3 -8 11 10.91 9.60 26.00 21 <
2 -4 11 54.34 23.50 27.40 21 <
1 1 11 221.21 155.00 30.10 21 o
-1 10 11 27.84 41.20 26.40 21 <
-1 11 11 80.95 19.40 26.00 21 <
3 -8 12 27.65 20.40 25.90 21 <
3 -7 12 415.86 322.30 28.50 21 o
2 -3 12 33.76 34.70 27.40 21 <
1 1 12 172.25 126.90 29.00 21 o
-1 10 12 32.87 -21.40 26.60 21 <
-1 11 12 20.29 8.40 25.90 21 <
3 -7 13 2.65 -21.10 25.60 21 <
2 -3 13 235.88 74.40 29.10 21 <
1 2 13 34.73 -45.50 28.30 21 <
3 -7 14 7.60 -4.30 25.60 21 <
3 -6 14 49.03 48.80 25.80 21 <
2 -2 14 288.36 392.30 29.70 21 o
1 2 14 996.36 993.00 34.90 21 o
3 -6 15 3.79 43.10 25.40 21 <
2 -2 15 87.71 33.30 26.90 21 <
1 3 15 153.15 175.50 27.90 21 o
3 -6 16 16.82 -12.50 25.50 21 <
3 -5 16 29.31 25.80 25.40 21 <
2 -1 16 811.87 690.00 32.30 21 o
1 3 16 227.53 211.20 27.70 21 o
0 8 16 27.72 34.60 26.10 21 <
3 -5 17 1.97 4.00 25.50 21 <
2 -1 17 10.61 5.80 26.00 21 <
1 4 17 1.62 23.30 25.80 21 <
3 -4 18 153.21 90.80 26.20 21 o
2 0 18 7.98 -2.60 25.50 21 <
1 4 18 107.68 9.30 26.20 21 <
1 5 18 25.00 -12.90 26.00 21 <
2 0 19 38.71 17.20 25.70 21 <
1 5 19 0.92 19.30 25.50 21 <
2 0 20 21.04 8.50 25.50 21 <
-1 -3 -19 2.87 33.90 28.50 22 <
-1 -2 -19 21.54 37.30 28.00 22 <
-2 2 -19 20.38 -8.10 27.90 22 <
-2 3 -19 37.70 -11.30 27.80 22 <
-1 -2 -18 123.01 147.30 29.40 22 o
-2 2 -18 35.10 -50.30 28.10 22 <
-2 3 -18 14.17 -0.80 28.40 22 <
-1 -2 -17 19.81 23.00 28.80 22 <
-2 3 -17 70.69 71.90 28.50 22 <
0 -6 -16 496.20 451.40 30.10 22 o
-1 -2 -16 244.84 333.30 31.00 22 o
-1 -1 -16 622.55 623.20 34.70 22 o
-2 3 -16 113.22 56.50 29.00 22 <
-2 4 -16 51.71 37.50 29.40 22 <
-1 -1 -15 379.02 426.30 34.30 22 o
-2 4 -15 58.88 130.20 29.00 22 o
1 -10 -14 11.68 -5.60 26.40 22 <
0 -6 -14 137.51 65.50 28.40 22 <
0 -5 -14 483.16 431.10 31.20 22 o
-1 -1 -14 4015.70 4613.00 56.80 22 o
-2 4 -14 136.41 57.60 29.30 22 <
-3 9 -14 7.31 -7.40 27.50 22 <
1 -10 -13 4.00 0.00 26.10 22 <
-2 4 -13 80.93 38.00 29.60 22 <
-2 5 -13 143.68 161.00 30.60 22 o
1 -10 -12 38.77 24.40 26.20 22 <
1 -9 -12 107.24 75.40 27.10 22 <
0 -5 -12 27.74 32.40 28.10 22 <
-2 5 -12 10.86 2.20 29.60 22 <
-3 10 -12 89.36 87.90 28.10 22 o
1 -9 -11 8.12 15.80 26.80 22 <
-2 5 -11 32.08 -2.60 29.80 22 <
-2 6 -11 5.37 -22.80 29.60 22 <
-3 10 -11 70.86 11.90 28.00 22 <
1 -9 -10 545.10 457.70 30.80 22 o
0 -4 -10 381.86 434.40 31.80 22 o
-1 1 -10 61.34 40.70 30.10 22 <
-2 6 -10 531.24 614.10 34.70 22 o
-3 11 -10 9.06 -72.40 28.00 22 <
2 -12 -9 9.22 15.70 26.40 22 <
1 -8 -9 42.60 94.70 28.10 22 o
-1 1 -9 446.04 476.80 35.00 22 o
-2 6 -9 104.86 21.90 31.40 22 <
-3 11 -9 159.04 130.80 29.00 22 o
2 -12 -8 14.05 54.10 26.10 22 <
1 -8 -8 1207.00 1050.60 36.30 22 o
0 -3 -8 15850.00 16214.60 98.10 22 o
-2 7 -8 1711.40 1870.80 44.70 22 o
-3 12 -8 15.43 -0.50 28.10 22 <
2 -12 -7 37.68 39.40 26.50 22 <
1 -8 -7 103.57 89.70 28.70 22 o
-1 2 -7 513.38 532.20 41.50 22 o
-2 7 -7 30.14 95.10 31.50 22 o
-3 12 -7 9.21 8.40 27.90 22 <
2 -12 -6 77.03 153.80 27.00 22 o
2 -11 -6 100.66 10.50 27.40 22 <
1 -7 -6 274.45 371.90 31.10 22 o
-2 7 -6 2101.00 1755.10 41.90 22 o
-2 8 -6 124.48 138.70 31.40 22 o
2 -11 -5 191.21 107.70 27.90 22 o
1 -7 -5 200.20 209.00 30.80 22 o
-1 3 -5 175.17 166.40 39.20 22 o
-2 8 -5 209.26 165.00 31.00 22 o
2 -11 -4 11.16 53.20 26.60 22 <
1 -6 -4 58.73 65.60 30.50 22 <
-1 3 -4 2470.70 1875.40 50.00 22 o
-2 8 -4 331.12 131.20 29.40 22 o
-2 9 -4 553.65 453.00 32.60 22 o
2 -11 -3 113.44 -5.10 27.10 22 <
2 -10 -3 39.28 -6.30 27.70 22 <
1 -6 -3 35.39 20.60 31.30 22 <
-2 9 -3 27.32 55.40 27.50 22 <
2 -10 -2 1199.50 1176.80 36.10 22 o
-1 4 -2 232.01 350.20 40.20 22 o
-2 9 -2 150.41 307.10 29.50 22 o
-2 10 -2 1937.60 2037.60 42.40 22 o
2 -10 -1 20.23 -57.00 27.20 22 <
1 -5 -1 64.02 325.90 37.70 22 o
-2 10 -1 22.79 24.90 27.50 22 <
-2 10 0 248.24 238.60 29.30 22 o
3 -13 1 4.92 53.40 26.00 22 <
2 -9 1 37.76 23.00 27.50 22 <
-2 11 1 1.29 0.50 26.90 22 <
3 -13 2 3.55 1.30 25.70 22 <
2 -9 2 279.87 397.60 30.60 22 o
1 -4 2 242.90 404.20 40.00 22 o
-1 6 2 3705.30 4631.50 58.90 22 o
-2 11 2 214.42 95.20 26.90 22 o
-2 12 2 89.05 92.90 26.70 22 o
3 -13 3 98.89 30.80 26.20 22 <
3 -12 3 188.09 26.60 27.20 22 <
2 -8 3 148.96 129.80 29.10 22 o
-1 6 3 96.80 -24.80 31.00 22 <
-2 11 3 139.22 112.90 26.80 22 o
-2 12 3 66.43 30.60 26.80 22 <
3 -12 4 286.32 110.20 27.30 22 o
2 -8 4 317.05 213.50 30.00 22 o
1 -3 4 1644.40 1715.20 47.80 22 o
-1 7 4 240.65 332.00 31.30 22 o
-2 12 4 21.02 -16.60 26.20 22 <
-2 13 4 69.51 82.50 26.50 22 o
3 -12 5 124.26 40.20 26.40 22 <
3 -11 5 10.28 46.40 25.90 22 <
2 -7 5 187.01 137.60 29.50 22 o
-1 7 5 240.97 181.70 29.60 22 o
-2 12 5 121.61 31.20 26.50 22 <
-2 13 5 17.32 15.90 26.00 22 <
3 -11 6 292.40 196.20 27.40 22 o
2 -7 6 1635.90 1885.90 41.50 22 o
1 -2 6 16528.00 15367.20 97.20 22 o
-1 8 6 1099.30 929.00 35.40 22 o
-2 13 6 46.17 79.60 26.50 22 o
3 -11 7 35.35 -43.90 26.00 22 <
2 -6 7 664.03 565.30 33.40 22 o
1 -2 7 780.07 613.10 42.50 22 o
-1 8 7 113.22 73.60 28.40 22 <
-1 9 7 127.00 77.20 28.30 22 <
3 -11 8 9.55 0.30 25.60 22 <
3 -10 8 240.73 138.10 27.20 22 o
2 -6 8 1181.60 1034.40 36.50 22 o
1 -1 8 43.28 131.30 34.30 22 o
-1 9 8 2273.70 2562.70 45.40 22 o
3 -10 9 171.70 68.00 26.20 22 <
1 -1 9 458.74 284.70 34.20 22 o
-1 9 9 6.50 16.40 27.50 22 <
-1 10 9 94.07 64.30 27.50 22 <
3 -10 10 43.18 1.50 25.60 22 <
3 -9 10 65.48 61.60 25.80 22 <
2 -5 10 86.91 97.80 28.50 22 o
-1 10 10 361.79 265.90 28.90 22 o
3 -9 11 26.38 7.90 25.90 22 <
2 -5 11 35.34 -44.00 27.20 22 <
-1 10 11 47.53 -5.20 26.50 22 <
-1 11 11 48.63 31.20 26.10 22 <
3 -9 12 169.36 88.20 26.40 22 o
3 -8 12 47.73 14.90 26.00 22 <
2 -4 12 132.39 177.80 28.30 22 o
1 1 12 121.42 153.60 29.70 22 o
-1 11 12 11.24 6.80 26.30 22 <
3 -8 13 19.90 25.40 25.70 22 <
2 -4 13 51.40 18.70 27.30 22 <
1 1 13 269.88 204.50 31.00 22 o
3 -8 14 94.85 56.50 26.40 22 <
2 -3 14 118.35 150.20 27.80 22 o
1 2 14 929.00 1243.80 37.20 22 o
3 -8 15 15.63 24.50 25.80 22 <
3 -7 15 9.13 27.00 25.70 22 <
2 -3 15 233.12 129.80 28.10 22 o
1 2 15 11.62 31.40 27.90 22 <
3 -7 16 72.42 60.70 26.10 22 <
2 -2 16 484.73 464.70 30.90 22 o
1 2 16 284.73 198.50 28.80 22 o
1 3 16 294.28 233.20 28.80 22 o
0 8 16 12.03 49.20 26.10 22 <
3 -6 17 5.68 30.80 25.60 22 <
2 -2 17 142.04 67.30 26.80 22 <
2 -1 17 10.05 -4.50 26.10 22 <
1 3 17 11.90 -16.60 26.30 22 <
2 -1 18 17.34 13.20 25.70 22 <
1 3 18 20.07 -7.10 26.00 22 <
1 4 18 46.41 36.40 26.30 22 <
2 -1 19 7.22 -5.40 25.60 22 <
2 0 19 52.34 38.30 26.20 22 <
1 4 19 2.24 29.50 25.50 22 <
1 5 19 3.54 28.60 25.20 22 <
2 0 20 27.93 26.10 25.70 22 <
-1 -2 -20 126.52 180.10 28.70 23 o
-1 -3 -19 7.29 -30.20 28.50 23 <
-1 -2 -19 14.34 18.00 27.80 23 <
-2 3 -19 22.50 46.10 27.80 23 <
-1 -2 -18 98.90 182.00 29.00 23 o
-2 3 -18 7.75 -6.10 27.90 23 <
-2 4 -18 160.02 70.90 28.70 23 <
-1 -2 -17 34.12 51.10 28.40 23 <
-1 -1 -17 47.03 19.10 28.20 23 <
-2 3 -17 120.87 70.00 28.00 23 <
-2 4 -17 26.75 43.30 27.30 23 <
0 -6 -16 438.16 450.70 29.80 23 o
-1 -1 -16 409.04 642.40 34.10 23 o
-2 4 -16 48.12 72.90 28.70 23 <
-1 -1 -15 379.28 587.90 35.00 23 o
-2 4 -15 56.92 63.40 29.10 23 <
-2 5 -15 66.06 7.40 29.00 23 <
1 -10 -14 20.64 2.50 26.00 23 <
0 -5 -14 542.61 305.50 30.10 23 o
-1 -1 -14 4324.80 5091.90 58.60 23 o
-2 5 -14 98.40 127.70 30.30 23 o
1 -10 -13 3.30 61.40 25.80 23 <
-2 5 -13 108.66 71.00 29.90 23 <
-2 6 -13 41.41 -11.50 28.70 23 <
1 -10 -12 13.50 39.60 25.80 23 <
0 -5 -12 18.42 52.10 27.70 23 <
-2 6 -12 133.05 273.10 31.70 23 o
1 -10 -11 39.86 19.90 26.90 23 <
1 -9 -11 2.47 -12.90 26.70 23 <
-1 1 -11 160.87 80.50 29.80 23 <
-2 6 -11 23.27 -4.90 29.10 23 <
1 -9 -10 302.10 363.60 29.90 23 o
0 -4 -10 320.06 422.20 31.60 23 o
-1 1 -10 53.61 143.50 30.10 23 o
-2 6 -10 524.04 342.50 32.30 23 o
-2 7 -10 50.40 63.50 29.90 23 <
1 -9 -9 20.03 -21.30 27.90 23 <
-2 7 -9 82.55 -5.10 30.70 23 <
1 -8 -8 861.41 914.00 34.90 23 o
0 -3 -8 15731.00 14559.00 93.80 23 o
-1 2 -8 294.50 240.20 33.20 23 o
-2 7 -8 1435.00 1204.20 40.00 23 o
-2 8 -8 2386.40 2441.90 46.90 23 o
2 -12 -7 54.39 11.30 26.10 23 <
1 -8 -7 62.93 -23.90 28.30 23 <
-1 2 -7 501.47 258.00 36.60 23 o
-2 8 -7 452.38 347.60 34.20 23 o
2 -13 -6 57.87 37.60 26.00 23 <
2 -12 -6 72.76 145.70 26.80 23 o
1 -8 -6 931.49 1211.30 36.60 23 o
-1 3 -6 5736.40 5598.70 65.00 23 o
-2 8 -6 103.58 116.10 30.10 23 o
2 -12 -5 61.78 11.90 26.10 23 <
1 -7 -5 167.96 150.80 30.10 23 o
-1 3 -5 171.68 47.10 37.40 23 <
-2 9 -5 479.16 370.20 33.20 23 o
2 -12 -4 5.12 31.70 26.20 23 <
2 -11 -4 9.51 16.90 26.40 23 <
1 -7 -4 236.05 337.00 31.20 23 o
-2 9 -4 345.64 245.20 30.20 23 o
2 -11 -3 69.57 22.50 26.40 23 <
1 -6 -3 106.86 -18.00 30.80 23 <
-1 4 -3 115.59 129.90 36.50 23 o
-2 9 -3 48.74 20.60 27.70 23 <
-2 10 -3 42.44 44.60 27.90 23 <
2 -11 -2 50.50 103.10 26.80 23 o
1 -6 -2 3791.80 4380.00 56.60 23 o
-2 10 -2 991.18 1010.40 34.70 23 o
2 -10 -1 17.07 4.70 26.60 23 <
-1 5 -1 35.15 106.40 37.30 23 <
-2 10 -1 38.00 7.80 27.10 23 <
-2 11 -1 6.27 -28.90 26.70 23 <
2 -10 0 146.53 115.20 27.60 23 o
2 -10 1 32.56 15.60 27.30 23 <
2 -9 1 61.41 -27.50 27.30 23 <
-1 6 1 467.63 527.80 38.00 23 o
-2 11 1 2.83 43.30 26.30 23 <
-2 12 1 63.59 79.10 26.60 23 <
2 -9 2 201.57 174.90 28.70 23 o
1 -4 2 234.06 143.60 37.00 23 o
-1 6 2 4951.70 3788.40 54.60 23 o
-2 12 2 43.85 54.60 26.40 23 <
-2 13 2 261.55 248.80 28.10 23 o
3 -13 3 75.60 22.70 26.20 23 <
2 -9 3 29.36 42.50 26.70 23 <
1 -4 3 132.18 97.50 36.10 23 <
-1 7 3 103.19 28.90 30.00 23 <
-2 12 3 71.70 -30.30 26.30 23 <
-2 13 3 5.35 -47.20 26.00 23 <
2 -8 4 263.88 174.50 28.50 23 o
-1 7 4 237.09 194.70 30.30 23 o
-2 13 4 69.24 28.00 26.40 23 <
3 -12 5 135.59 4.30 26.20 23 <
2 -8 5 195.03 79.40 29.30 23 <
1 -3 5 168.14 64.20 37.40 23 <
-1 8 5 60.31 27.90 28.50 23 <
-2 13 5 28.94 -15.70 25.70 23 <
3 -12 6 86.75 -5.40 26.40 23 <
2 -7 6 1614.30 1210.80 37.20 23 o
-1 8 6 786.08 647.30 33.10 23 o
-1 9 6 1774.10 2027.60 41.10 23 o
3 -12 7 7.18 -24.90 25.90 23 <
3 -11 7 79.48 23.90 25.80 23 <
2 -7 7 29.09 58.60 27.70 23 <
1 -2 7 401.49 497.70 38.80 23 o
-1 9 7 86.51 3.90 27.90 23 <
3 -12 8 32.04 34.30 25.70 23 <
3 -11 8 15.80 20.70 25.60 23 <
2 -7 8 1840.40 1921.90 41.30 23 o
-1 9 8 2028.80 2280.60 43.10 23 o
-1 10 8 1341.80 1655.70 38.80 23 o
3 -11 9 89.32 59.00 26.00 23 <
2 -6 9 66.49 80.30 28.10 23 <
1 -1 9 371.40 453.50 33.60 23 o
-1 10 9 54.37 -7.50 26.90 23 <
3 -11 10 8.89 1.40 25.60 23 <
3 -10 10 50.50 3.10 25.90 23 <
2 -6 10 408.65 538.10 31.40 23 o
1 -1 10 77.67 64.20 29.30 23 <
-1 10 10 350.20 234.90 28.80 23 o
-1 11 10 101.10 58.30 26.50 23 <
3 -10 11 81.08 20.80 25.80 23 <
2 -5 11 18.05 30.50 27.30 23 <
-1 11 11 29.96 11.20 25.80 23 <
3 -10 12 80.16 37.20 26.30 23 <
3 -9 12 252.17 57.80 25.90 23 <
2 -5 12 83.12 49.80 27.00 23 <
-1 11 12 18.63 22.80 25.90 23 <
3 -9 13 48.90 54.50 25.60 23 <
2 -4 13 28.42 16.80 27.40 23 <
1 1 13 238.75 266.50 31.00 23 o
3 -9 14 4.78 3.40 25.40 23 <
3 -8 14 84.98 20.90 25.90 23 <
2 -4 14 34.88 5.30 26.60 23 <
1 1 14 3864.10 4091.80 53.00 23 o
1 2 14 1571.80 1389.20 37.50 23 o
3 -8 15 3.31 12.80 25.60 23 <
2 -3 15 143.76 70.90 27.80 23 <
1 2 15 6.46 13.20 27.10 23 <
3 -7 16 70.29 23.20 26.00 23 <
2 -3 16 47.57 47.30 26.50 23 <
1 2 16 148.21 147.90 28.00 23 o
1 3 16 329.15 363.50 29.40 23 o
0 8 16 14.28 -3.50 26.20 23 <
2 -2 17 107.33 73.20 26.70 23 <
1 3 17 14.58 22.80 26.00 23 <
2 -2 18 34.30 14.10 25.90 23 <
2 -1 18 11.39 -59.50 25.80 23 <
1 3 18 19.68 4.60 26.00 23 <
1 4 18 128.69 86.70 26.70 23 o
2 -2 19 22.23 11.80 25.90 23 <
2 -1 19 1.15 16.00 25.60 23 <
1 4 19 1.68 -3.90 25.90 23 <
1 5 19 3.30 25.40 25.80 23 <
2 0 20 28.62 18.80 25.60 23 <
-1 -2 -20 133.63 170.40 29.50 24 o
-1 -2 -19 14.75 29.60 28.30 24 <
-1 -1 -19 17.67 -5.70 28.00 24 <
-2 4 -19 11.49 -8.90 27.80 24 <
0 -6 -18 16.11 -31.10 25.90 24 <
-1 -2 -18 147.19 241.40 29.60 24 o
-1 -1 -18 55.97 67.10 28.90 24 <
-2 4 -18 160.63 78.10 28.70 24 <
-2 5 -18 17.30 38.10 27.70 24 <
-1 -1 -17 29.89 16.60 28.50 24 <
-2 4 -17 50.79 38.30 28.00 24 <
-2 5 -17 16.49 88.70 28.00 24 o
0 -6 -16 507.49 515.20 29.90 24 o
-1 -1 -16 633.83 822.70 35.60 24 o
-2 5 -16 10.46 26.60 28.70 24 <
-2 6 -16 166.49 175.50 29.20 24 o
-2 5 -15 93.58 147.60 29.20 24 o
-2 6 -15 10.41 -30.40 28.60 24 <
1 -10 -14 33.11 59.60 26.30 24 <
0 -5 -14 327.15 385.30 30.50 24 o
-2 6 -14 62.94 60.90 29.20 24 <
1 -10 -13 1.84 -53.20 26.20 24 <
-1 1 -13 426.11 361.30 33.90 24 o
-2 6 -13 74.74 -7.70 29.30 24 <
-2 7 -13 50.74 24.40 29.00 24 <
1 -10 -12 26.72 -19.80 26.00 24 <
0 -5 -12 36.85 53.40 27.80 24 <
-1 1 -12 133.42 79.00 30.20 24 <
-2 7 -12 194.94 209.10 30.10 24 o
1 -10 -11 42.96 7.20 27.00 24 <
1 -9 -11 7.41 17.70 26.40 24 <
-1 1 -11 282.70 229.80 31.10 24 o
-2 7 -11 149.83 124.90 29.80 24 o
-2 8 -11 7.87 -19.30 28.80 24 <
1 -10 -10 541.10 655.50 31.50 24 o
1 -9 -10 654.68 521.60 31.40 24 o
0 -4 -10 279.76 406.90 31.80 24 o
-1 2 -10 1475.00 1410.80 40.30 24 o
-2 7 -10 101.06 51.90 29.30 24 <
-2 8 -10 34.57 15.10 29.50 24 <
1 -9 -9 7.51 18.30 28.00 24 <
-1 2 -9 278.94 225.30 31.70 24 o
-2 8 -9 258.02 237.70 31.50 24 o
1 -9 -8 2883.80 3226.50 48.70 24 o
0 -3 -8 17199.00 16234.50 98.80 24 o
-1 2 -8 262.64 225.30 33.80 24 o
-2 8 -8 2383.00 2041.90 45.10 24 o
-2 9 -8 13.43 71.30 30.10 24 <
1 -8 -7 73.65 -17.10 28.60 24 <
-1 3 -7 552.43 428.40 39.10 24 o
-2 9 -7 215.99 253.00 31.20 24 o
2 -13 -6 78.87 5.90 26.30 24 <
1 -8 -6 761.62 973.00 36.10 24 o
-1 3 -6 5480.70 5117.10 63.30 24 o
-2 9 -6 279.47 235.90 32.10 24 o
-2 10 -6 68.77 83.40 29.50 24 <
2 -13 -5 21.51 -26.20 26.20 24 <
2 -12 -5 105.30 -34.80 27.00 24 <
1 -8 -5 93.02 115.40 29.30 24 o
-1 4 -5 346.62 251.80 38.50 24 o
-2 10 -5 96.58 63.00 29.30 24 <
2 -13 -4 114.26 67.50 26.70 24 <
2 -12 -4 8.73 20.00 26.50 24 <
1 -7 -4 296.68 337.20 31.20 24 o
-1 4 -4 1665.10 1673.00 47.80 24 o
-2 10 -4 1487.80 1448.70 39.40 24 o
-2 11 -4 14.72 42.10 28.70 24 <
2 -12 -3 79.80 43.00 27.10 24 <
1 -7 -3 151.14 235.90 30.60 24 o
-2 10 -3 45.57 -48.60 28.20 24 <
-2 11 -3 102.79 91.90 29.00 24 o
2 -12 -2 86.70 14.30 26.50 24 <
2 -11 -2 74.64 100.90 27.20 24 o
1 -6 -2 6012.00 5325.20 61.80 24 o
-1 5 -2 2695.70 2494.60 51.60 24 o
-2 11 -2 107.15 81.70 29.00 24 <
-2 12 -2 107.67 68.40 27.80 24 <
2 -11 -1 3.09 20.00 26.30 24 <
1 -6 -1 421.92 390.40 40.40 24 o
-2 11 -1 18.92 3.90 27.00 24 <
-2 12 -1 80.67 49.80 27.30 24 <
-1 6 0 7938.10 8228.80 74.20 24 o
-2 12 0 706.50 530.30 31.40 24 o
2 -11 1 14.65 38.80 26.30 24 <
2 -10 1 12.54 40.10 27.30 24 <
1 -5 1 60.07 -8.30 37.90 24 <
-1 6 1 558.26 594.60 38.00 24 o
-2 12 1 87.36 74.60 26.90 24 <
-2 13 1 51.78 -40.10 26.30 24 <
2 -10 2 1079.50 1178.80 36.20 24 o
1 -5 2 3487.60 3658.80 56.40 24 o
-1 7 2 2654.80 2764.20 48.20 24 o
-2 13 2 268.15 233.90 28.00 24 o
2 -10 3 54.47 76.80 27.50 24 <
2 -9 3 44.11 21.20 27.60 24 <
1 -4 3 203.28 73.10 37.30 24 <
-1 7 3 148.01 20.20 30.30 24 <
-2 13 3 6.29 19.50 26.00 24 <
2 -9 4 369.98 358.70 30.70 24 o
1 -4 4 1970.10 2091.20 49.30 24 o
-1 8 4 113.49 226.10 30.40 24 o
2 -9 5 618.06 492.40 31.90 24 o
-1 8 5 77.98 23.20 28.50 24 <
-1 9 5 31.90 57.80 28.30 24 <
2 -8 6 111.19 89.00 29.20 24 o
1 -3 6 4541.70 5265.80 64.30 24 o
-1 9 6 1226.20 1469.30 37.80 24 o
2 -8 7 553.45 437.20 31.70 24 o
-1 9 7 83.02 60.70 28.70 24 <
-1 10 7 12.84 -32.90 27.30 24 <
3 -12 8 27.22 37.50 25.90 24 <
2 -8 8 2835.80 2402.80 44.80 24 o
2 -7 8 1765.10 1667.20 40.30 24 o
1 -2 8 103.39 146.00 34.50 24 o
-1 10 8 1223.40 1436.40 37.50 24 o
2 -7 9 76.01 44.20 28.10 24 <
-1 10 9 66.72 84.80 26.80 24 o
-1 11 9 46.19 36.00 25.80 24 <
3 -11 10 13.74 -1.90 25.90 24 <
2 -7 10 87.58 92.30 27.60 24 o
2 -6 10 577.74 499.30 31.30 24 o
1 -1 10 128.41 193.70 31.10 24 o
-1 11 10 36.74 104.90 26.70 24 o
-1 12 10 263.95 220.00 28.30 24 o
2 -6 11 9.15 29.20 26.90 24 <
1 -1 11 297.97 123.70 30.20 24 o
-1 11 11 60.23 4.60 26.30 24 <
3 -10 12 147.34 65.00 26.10 24 <
2 -6 12 476.32 384.80 30.00 24 o
2 -5 12 69.43 90.60 26.60 24 o
2 -5 13 138.67 85.90 27.60 24 o
1 1 13 426.96 303.70 32.60 24 o
2 -5 14 408.24 196.80 28.40 24 o
2 -4 14 37.96 -41.50 27.00 24 <
1 1 14 3666.00 4777.80 57.20 24 o
0 7 14 156.18 140.10 27.60 24 o
2 -4 15 64.97 43.50 26.70 24 <
1 1 15 562.06 492.90 32.40 24 o
1 2 15 19.51 -5.10 28.00 24 <
2 -4 16 55.92 65.50 26.50 24 <
2 -3 16 99.84 57.90 26.90 24 <
1 2 16 117.27 164.40 28.60 24 o
0 8 16 10.87 -28.30 26.00 24 <
2 -3 17 85.32 76.10 26.60 24 <
1 2 17 31.80 29.10 26.20 24 <
1 3 17 15.93 -7.70 26.30 24 <
2 -3 18 44.61 -12.30 26.20 24 <
2 -2 18 30.16 1.20 26.00 24 <
1 3 18 45.02 7.90 26.20 24 <
2 -3 19 43.53 22.00 25.70 24 <
2 -2 19 11.42 11.80 25.50 24 <
1 3 19 2.77 17.30 25.60 24 <
1 4 19 0.87 -0.20 25.50 24 <
-1 -2 -20 145.84 238.30 30.00 25 o
-1 -1 -20 89.41 79.70 28.70 25 <
-1 -1 -19 18.93 -3.40 28.40 25 <
0 -6 -18 26.54 16.50 26.20 25 <
-1 -1 -18 23.23 9.80 28.90 25 <
-2 5 -18 4.98 -13.50 28.00 25 <
-2 6 -18 25.39 3.80 27.70 25 <
-1 -1 -17 96.36 68.60 29.10 25 <
-2 6 -17 10.68 58.20 28.30 25 <
-2 7 -17 55.44 67.00 27.90 25 <
0 -6 -16 566.86 471.00 31.20 25 o
-2 6 -16 354.41 257.80 30.40 25 o
-2 7 -16 12.10 -7.10 27.90 25 <
-1 1 -15 677.97 621.30 36.00 25 o
-2 6 -15 20.93 118.60 28.20 25 o
-2 7 -15 8.78 -4.90 28.10 25 <
0 -5 -14 355.31 362.80 30.80 25 o
-1 1 -14 4372.50 4559.40 58.90 25 o
-2 7 -14 74.03 27.00 29.10 25 <
-2 8 -14 23.62 40.40 28.10 25 <
1 -10 -13 5.69 -3.60 26.10 25 <
-1 1 -13 364.50 416.30 34.50 25 o
-2 7 -13 89.66 11.10 29.40 25 <
-2 8 -13 34.40 8.10 28.50 25 <
1 -11 -12 12.97 -19.60 26.30 25 <
1 -10 -12 21.53 26.10 26.30 25 <
0 -5 -12 56.89 61.30 27.90 25 <
-1 1 -12 307.30 200.20 31.90 25 o
-1 2 -12 1889.10 1640.40 43.20 25 o
-2 8 -12 26.65 108.20 28.90 25 o
-2 9 -12 16.01 14.60 28.20 25 <
1 -10 -11 50.60 7.40 27.30 25 <
-1 2 -11 147.21 196.20 31.30 25 o
-2 8 -11 20.81 57.30 28.90 25 <
-2 9 -11 21.22 50.30 29.00 25 <
1 -10 -10 498.92 394.50 30.70 25 o
1 -9 -10 747.72 495.50 31.30 25 o
0 -4 -10 275.33 468.20 32.50 25 o
-1 2 -10 1830.80 1798.50 42.20 25 o
-2 9 -10 96.24 127.80 30.40 25 o
1 -10 -9 137.49 99.90 27.90 25 o
1 -9 -9 39.79 41.90 28.00 25 <
-1 3 -9 289.13 104.90 32.80 25 o
-2 9 -9 127.07 69.00 30.00 25 <
-2 10 -9 24.10 108.00 28.60 25 o
1 -9 -8 2843.50 3077.80 49.30 25 o
0 -3 -8 16571.00 15691.10 97.70 25 o
-1 3 -8 1441.80 1338.10 41.10 25 o
-2 9 -8 23.05 81.40 30.20 25 <
-2 10 -8 92.68 42.20 29.30 25 <
1 -9 -7 85.17 35.20 30.00 25 <
-1 3 -7 775.36 535.00 38.60 25 o
-2 10 -7 76.95 296.20 31.50 25 o
-2 11 -7 72.60 65.90 28.90 25 <
2 -13 -6 70.03 36.00 26.50 25 <
1 -8 -6 965.05 843.40 35.70 25 o
-1 4 -6 3942.70 4189.00 59.30 25 o
-2 10 -6 66.58 74.30 29.70 25 <
-2 11 -6 64.89 170.10 29.50 25 o
2 -13 -5 32.02 31.90 26.10 25 <
1 -8 -5 48.28 17.60 29.20 25 <
-1 4 -5 271.65 218.40 38.70 25 o
-2 11 -5 262.00 195.20 30.80 25 o
-2 12 -5 99.23 119.20 28.70 25 o
2 -13 -4 46.11 46.10 26.40 25 <
1 -8 -4 98.08 126.10 30.00 25 o
-1 5 -4 2663.50 2895.20 51.80 25 o
-2 11 -4 20.15 40.40 29.10 25 <
-2 12 -4 11.63 53.90 28.70 25 <
2 -13 -3 10.66 -23.20 25.90 25 <
2 -12 -3 151.43 108.20 26.90 25 o
1 -7 -3 145.89 195.60 30.90 25 o
-1 5 -3 22.36 65.60 36.80 25 <
-2 12 -3 112.17 62.30 28.90 25 <
-2 13 -3 7.57 47.90 28.50 25 <
2 -13 -2 269.28 260.90 28.80 25 o
2 -12 -2 93.14 45.50 26.30 25 <
1 -7 -2 2377.20 3340.20 51.80 25 o
-1 6 -2 6673.00 6604.00 68.10 25 o
-2 12 -2 81.17 -40.60 27.80 25 <
-2 13 -2 217.06 182.80 30.10 25 o
2 -12 -1 80.50 98.60 27.40 25 o
1 -6 -1 793.25 611.90 39.10 25 o
-1 6 -1 476.11 575.10 40.90 25 o
-2 12 -1 181.10 91.90 27.90 25 o
-2 13 -1 59.63 67.40 27.90 25 <
2 -12 0 762.29 681.30 32.50 25 o
1 -6 0 8215.80 8432.30 75.80 25 o
-1 6 0 11549.00 10062.10 80.80 25 o
2 -12 1 150.51 89.50 28.00 25 o
2 -11 1 4.32 -11.10 26.80 25 <
1 -6 1 724.67 766.60 41.20 25 o
-1 7 1 109.85 80.30 31.80 25 <
-2 13 1 72.92 66.90 27.00 25 <
2 -11 2 130.67 127.10 28.30 25 o
1 -5 2 3070.20 2659.50 51.50 25 o
-1 7 2 2999.90 3524.90 52.10 25 o
-1 8 2 80.00 167.60 30.20 25 o
2 -11 3 173.66 57.50 27.20 25 <
2 -10 3 26.98 22.40 27.80 25 <
1 -5 3 21.38 64.60 35.30 25 <
-1 8 3 174.76 182.80 30.70 25 o
2 -10 4 1488.60 1561.50 39.40 25 o
1 -4 4 2111.70 2132.10 49.70 25 o
-1 8 4 106.37 314.20 31.60 25 o
-1 9 4 44.65 20.00 28.40 25 <
2 -10 5 123.82 69.00 28.00 25 <
2 -9 5 880.05 618.00 33.00 25 o
1 -4 5 233.50 219.30 39.30 25 o
-1 9 5 40.78 30.80 28.10 25 <
2 -9 6 288.76 363.60 30.00 25 o
-1 9 6 1367.90 1562.90 39.10 25 o
-1 10 6 38.26 37.70 27.50 25 <
2 -9 7 279.54 148.20 29.00 25 o
1 -3 7 386.55 452.70 39.20 25 o
-1 10 7 13.85 20.60 27.30 25 <
2 -9 8 21.37 61.70 27.60 25 <
2 -8 8 2404.80 2331.10 44.20 25 o
1 -3 8 1501.10 1583.10 42.90 25 o
-1 10 8 1283.70 1441.80 37.90 25 o
-1 11 8 5.12 20.40 26.40 25 <
2 -8 9 269.74 254.50 29.40 25 o
1 -2 9 166.03 55.20 32.20 25 <
-1 11 9 53.60 58.40 26.10 25 <
-1 12 9 45.79 56.30 26.10 25 <
2 -8 10 33.51 9.90 27.20 25 <
2 -7 10 63.07 48.20 28.10 25 <
1 -2 10 1459.60 1360.20 39.70 25 o
-1 11 10 56.12 38.40 27.40 25 <
-1 12 10 174.29 91.30 27.60 25 o
2 -7 11 128.17 109.60 27.90 25 o
1 -1 11 205.63 176.60 31.10 25 o
2 -7 12 418.90 222.60 28.50 25 o
2 -6 12 408.92 376.90 30.80 25 o
1 -1 12 212.25 112.10 30.50 25 o
2 -6 13 27.96 -0.10 27.20 25 <
2 -6 14 70.64 14.50 26.90 25 <
2 -5 14 141.06 137.40 28.20 25 o
1 1 14 6146.80 6737.80 66.00 25 o
0 7 14 198.95 202.10 27.90 25 o
2 -6 15 17.81 -8.00 26.20 25 <
2 -5 15 89.21 130.80 27.20 25 o
1 1 15 446.96 504.70 34.30 25 o
2 -5 16 7.67 62.00 26.40 25 <
2 -4 16 51.70 52.90 26.80 25 <
1 1 16 532.79 503.80 31.80 25 o
1 2 16 167.20 225.10 29.10 25 o
0 8 16 47.63 -13.90 26.40 25 <
2 -5 17 32.87 52.70 25.90 25 <
2 -4 17 50.00 76.20 25.90 25 <
1 2 17 17.04 57.70 27.00 25 <
2 -4 18 113.33 61.00 26.50 25 <
2 -3 18 13.58 20.50 26.00 25 <
1 2 18 163.74 157.20 27.70 25 o
1 3 18 47.23 53.90 26.90 25 <
2 -4 19 5.97 16.80 25.70 25 <
2 -3 19 34.88 2.90 25.80 25 <
1 2 19 40.94 12.40 26.10 25 <
1 3 19 5.90 49.80 26.00 25 <
1 4 19 1.83 19.90 25.70 25 <
-1 -1 -20 119.01 97.80 28.60 26 o
-1 1 -19 21.14 19.30 28.40 26 <
0 -6 -18 4.78 8.20 26.40 26 <
-1 1 -18 20.34 109.00 28.30 26 o
-1 1 -17 43.06 51.30 28.90 26 <
-2 7 -17 58.64 31.00 27.80 26 <
0 -6 -16 576.79 370.00 29.80 26 o
0 -5 -16 180.66 142.60 28.00 26 o
-1 1 -16 518.31 613.70 34.60 26 o
-2 8 -16 16.97 36.70 27.70 26 <
-1 1 -15 510.06 507.40 35.30 26 o
-1 2 -15 8.46 -41.90 30.30 26 <
-2 8 -15 3.53 -23.90 27.80 26 <
-2 9 -15 5.67 -15.00 27.40 26 <
0 -5 -14 543.75 350.00 30.50 26 o
-1 1 -14 4770.60 5126.80 61.10 26 o
-1 2 -14 976.95 1040.60 39.10 26 o
-2 8 -14 41.71 45.30 27.90 26 <
-2 9 -14 11.96 -11.40 27.60 26 <
-1 2 -13 43.57 18.50 31.70 26 <
-2 9 -13 7.71 27.00 28.00 26 <
-2 10 -13 16.24 25.70 27.60 26 <
1 -11 -12 6.70 -32.70 26.30 26 <
1 -10 -12 17.00 44.90 26.40 26 <
0 -5 -12 76.42 95.90 27.70 26 o
0 -4 -12 58.23 149.90 28.70 26 o
-1 2 -12 1426.10 1506.30 41.10 26 o
-1 3 -12 1760.90 1638.20 42.80 26 o
-2 9 -12 18.33 58.80 28.10 26 <
-2 10 -12 14.58 -6.20 28.10 26 <
-2 11 -12 14.34 0.50 27.80 26 <
1 -11 -11 63.47 29.40 26.70 26 <
1 -10 -11 29.99 8.50 26.60 26 <
-1 3 -11 20.96 49.20 30.90 26 <
-2 10 -11 4.92 7.30 28.50 26 <
-2 11 -11 44.39 -44.40 28.00 26 <
1 -10 -10 418.68 398.90 30.40 26 o
0 -4 -10 384.10 471.40 32.20 26 o
-1 3 -10 1461.30 1825.90 42.50 26 o
-2 10 -10 513.11 439.10 32.20 26 o
-2 11 -10 324.04 201.00 30.30 26 o
1 -10 -9 102.60 44.80 27.60 26 <
1 -9 -9 24.96 14.70 28.20 26 <
-1 3 -9 309.12 296.50 32.80 26 o
-1 4 -9 4.33 -18.40 28.90 26 <
-2 10 -9 28.88 74.40 28.90 26 <
-2 11 -9 2.49 18.10 28.00 26 <
-2 12 -9 12.45 -8.60 28.00 26 <
1 -10 -8 1683.10 1732.80 40.40 26 o
1 -9 -8 1996.20 2587.50 46.30 26 o
0 -3 -8 13906.00 13229.70 90.30 26 o
-1 4 -8 218.46 290.30 32.60 26 o
-2 11 -8 16.49 82.60 27.90 26 <
-2 12 -8 17.45 67.30 28.20 26 <
1 -9 -7 84.09 0.10 28.90 26 <
-1 4 -7 471.09 324.70 35.50 26 o
-2 11 -7 58.46 40.50 28.60 26 <
-2 12 -7 53.51 29.10 28.20 26 <
1 -9 -6 1395.50 1430.60 37.80 26 o
0 -2 -6 1714.80 1254.80 43.90 26 o
-1 5 -6 4849.20 5097.30 60.90 26 o
-2 12 -6 110.59 79.30 29.10 26 <
-2 13 -6 60.62 92.10 28.10 26 o
1 -9 -5 69.77 61.20 28.30 26 <
1 -8 -5 54.04 75.60 29.10 26 <
-1 5 -5 578.32 433.80 37.80 26 o
-2 12 -5 105.81 76.70 28.60 26 <
-2 13 -5 16.68 -25.80 27.90 26 <
1 -8 -4 52.71 21.30 28.80 26 <
-1 5 -4 3049.80 2549.90 49.70 26 o
-2 12 -4 5.55 72.00 28.20 26 <
-2 13 -4 67.82 30.70 28.60 26 <
2 -13 -3 6.44 -18.20 26.50 26 <
1 -8 -3 201.91 155.00 29.80 26 o
-1 6 -3 62.28 56.10 32.00 26 <
-2 13 -3 11.46 -38.10 27.80 26 <
2 -13 -2 253.30 209.10 27.70 26 o
1 -7 -2 2462.50 2721.80 47.70 26 o
-1 6 -2 4768.40 4557.60 58.90 26 o
-2 13 -2 186.00 147.90 29.20 26 o
2 -13 -1 49.15 21.70 26.20 26 <
1 -7 -1 88.39 81.60 31.30 26 <
-1 7 -1 77.53 46.00 31.30 26 <
2 -12 0 592.35 501.90 31.40 26 o
2 -13 1 58.68 8.70 26.60 26 <
2 -12 1 116.23 61.80 26.70 26 <
1 -6 1 395.35 385.70 38.60 26 o
-1 7 1 114.88 45.40 30.20 26 <
-1 8 1 78.68 39.30 29.10 26 <
2 -12 2 59.11 64.90 26.50 26 <
1 -6 2 5040.90 5210.60 62.00 26 o
-1 8 2 227.54 298.80 30.00 26 o
2 -12 3 119.42 44.50 26.30 26 <
2 -11 3 79.70 30.70 27.00 26 <
1 -5 3 19.77 -20.30 34.70 26 <
-1 8 3 209.12 202.60 29.80 26 o
-1 9 3 108.80 74.60 28.20 26 <
2 -11 4 17.06 22.20 26.50 26 <
1 -5 4 1890.60 2126.40 47.30 26 o
-1 9 4 140.91 77.00 28.10 26 <
2 -11 5 195.55 99.00 27.30 26 o
2 -10 5 83.34 29.80 27.10 26 <
1 -5 5 764.90 570.00 38.20 26 o
-1 9 5 37.10 1.20 28.20 26 <
-1 10 5 9.46 7.80 27.70 26 <
2 -11 6 93.04 -6.10 26.00 26 <
2 -10 6 18.07 -20.70 26.40 26 <
1 -4 6 3825.00 4032.30 56.90 26 o
-1 10 6 31.59 83.80 27.90 26 o
-1 11 6 752.92 730.80 32.30 26 o
2 -10 7 71.55 56.60 26.70 26 <
1 -4 7 499.89 380.80 36.30 26 o
-1 10 7 13.69 53.10 27.10 26 <
-1 11 7 15.20 12.40 26.50 26 <
2 -10 8 93.39 65.40 26.90 26 <
2 -9 8 83.44 15.40 27.20 26 <
1 -3 8 674.01 783.20 37.70 26 o
-1 10 8 1969.30 1849.20 39.70 26 o
-1 11 8 8.22 33.80 26.20 26 <
-1 12 8 10.15 38.80 26.40 26 <
2 -9 9 62.97 76.00 27.50 26 <
1 -3 9 283.37 270.20 32.40 26 o
-1 11 9 31.74 1.60 26.10 26 <
-1 12 9 31.65 -1.60 25.90 26 <
2 -9 10 110.61 52.90 26.90 26 <
2 -8 10 41.85 28.40 26.90 26 <
1 -2 10 1325.20 1553.30 40.90 26 o
-1 11 10 121.89 56.60 27.00 26 <
-1 12 10 207.87 75.60 27.10 26 <
2 -9 11 10.05 -12.00 26.00 26 <
2 -8 11 18.69 27.10 25.90 26 <
1 -2 11 126.30 124.20 30.80 26 o
2 -8 12 26.44 47.30 25.80 26 <
1 -2 12 1631.50 1584.80 39.80 26 o
1 -1 12 191.28 185.70 30.80 26 o
2 -8 13 54.96 16.90 26.30 26 <
2 -7 13 65.31 8.60 26.20 26 <
1 -1 13 283.46 190.40 31.40 26 o
2 -7 14 70.65 15.70 26.10 26 <
1 -1 14 3702.50 3802.00 52.40 26 o
0 7 14 153.29 142.80 27.20 26 o
2 -7 15 7.82 -1.10 25.70 26 <
2 -6 15 15.20 15.30 26.10 26 <
2 -6 16 240.40 124.30 27.10 26 o
1 1 16 677.77 572.70 32.10 26 o
0 8 16 6.85 -20.10 26.20 26 <
2 -6 17 9.13 -5.10 25.70 26 <
2 -5 17 25.73 20.50 26.00 26 <
1 1 17 33.06 23.50 26.50 26 <
2 -6 18 22.12 53.40 26.20 26 <
2 -5 18 2.35 -3.30 25.70 26 <
1 1 18 53.79 54.20 26.50 26 <
1 2 18 105.90 114.90 26.70 26 o
2 -4 19 7.87 7.40 25.70 26 <
1 2 19 19.74 -10.90 26.20 26 <
1 3 19 8.01 -25.90 26.00 26 <
1 2 20 168.16 99.50 26.60 26 o
-1 1 -20 95.91 116.30 28.60 27 o
-1 1 -19 18.42 50.50 28.10 27 <
-1 2 -19 28.71 -54.30 28.50 27 <
0 -6 -18 2.73 6.90 26.70 27 <
-1 1 -18 16.50 47.50 29.50 27 <
-1 2 -18 123.74 301.90 30.80 27 o
-1 1 -17 73.42 48.00 29.50 27 <
-1 2 -17 42.18 -23.30 29.60 27 <
0 -6 -16 653.00 531.20 31.10 27 o
0 -5 -16 122.99 201.80 28.30 27 o
-1 1 -16 858.40 932.20 37.00 27 o
-1 2 -16 172.70 257.30 31.50 27 o
-1 2 -15 8.51 -24.70 30.90 27 <
-1 3 -15 235.96 244.40 32.60 27 o
0 -5 -14 342.42 256.10 30.50 27 o
-1 2 -14 1299.40 1265.10 40.70 27 o
-1 3 -14 179.63 169.90 32.20 27 o
-1 3 -13 144.05 131.00 31.90 27 o
-2 10 -13 19.77 48.40 27.80 27 <
1 -11 -12 7.50 -6.20 26.60 27 <
0 -5 -12 41.46 128.70 28.60 27 o
0 -4 -12 66.84 111.50 28.90 27 o
-1 3 -12 1319.30 1295.90 41.80 27 o
-1 4 -12 530.01 696.00 36.30 27 o
-2 11 -12 5.04 19.80 28.00 27 <
1 -11 -11 57.42 22.80 27.00 27 <
1 -10 -11 67.07 33.30 27.20 27 <
-1 3 -11 57.09 46.20 32.40 27 <
-1 4 -11 2.89 -89.60 31.20 27 <
-2 11 -11 47.53 63.50 28.10 27 <
1 -11 -10 93.19 22.70 27.30 27 <
1 -10 -10 544.43 362.20 30.00 27 o
0 -4 -10 623.43 567.80 33.80 27 o
-1 4 -10 11.38 49.30 31.40 27 <
1 -11 -9 55.22 87.40 27.20 27 o
1 -10 -9 95.29 18.50 28.10 27 <
-1 4 -9 7.71 -37.20 30.50 27 <
-1 5 -9 447.81 500.00 35.40 27 o
-2 12 -9 12.01 32.80 28.10 27 <
1 -10 -8 1290.30 1493.30 38.90 27 o
0 -3 -8 16178.00 15568.80 97.70 27 o
-1 5 -8 97.56 73.90 30.60 27 <
-2 12 -8 35.79 4.00 28.70 27 <
1 -10 -7 7.44 -29.20 28.30 27 <
1 -9 -7 139.87 39.70 29.80 27 <
-1 5 -7 348.68 354.90 33.50 27 o
1 -10 -6 217.00 260.10 30.00 27 o
1 -9 -6 1669.20 1450.10 38.90 27 o
0 -2 -6 1064.00 1091.50 43.40 27 o
-1 5 -6 6543.20 6256.90 66.20 27 o
-1 6 -6 88.29 159.30 31.50 27 o
-2 13 -6 82.76 46.20 28.70 27 <
1 -9 -5 33.34 23.10 28.60 27 <
-1 6 -5 74.84 -4.30 31.20 27 <
1 -9 -4 67.35 93.40 28.20 27 o
1 -8 -4 203.33 46.90 29.40 27 <
-1 6 -4 36.60 55.60 31.10 27 <
1 -8 -3 176.17 115.40 29.60 27 o
-1 7 -3 160.91 116.70 31.20 27 o
1 -8 -2 28.44 -18.20 29.60 27 <
-1 7 -2 3125.60 3284.90 50.80 27 o
1 -8 -1 104.78 86.20 29.30 27 <
1 -7 -1 144.97 94.20 31.60 27 <
-1 7 -1 73.93 106.90 30.40 27 o
-1 8 -1 49.58 42.60 29.50 27 <
-1 8 0 32.17 30.70 29.10 27 <
2 -13 1 53.45 22.00 26.60 27 <
1 -7 1 50.96 17.40 31.40 27 <
-1 8 1 78.35 35.70 28.80 27 <
-1 9 1 17.59 60.50 27.70 27 <
2 -13 2 218.01 170.80 27.10 27 o
1 -6 2 6074.70 6371.80 67.50 27 o
-1 9 2 85.47 139.00 28.60 27 o
2 -13 3 6.80 -6.50 26.10 27 <
2 -12 3 157.03 86.00 26.90 27 o
1 -6 3 77.12 46.90 33.50 27 <
-1 9 3 117.63 67.70 28.40 27 <
-1 10 3 1.23 13.40 27.70 27 <
2 -13 4 55.34 20.50 26.00 27 <
2 -12 4 8.78 17.40 26.20 27 <
1 -6 4 63.38 162.80 32.20 27 o
-1 9 4 55.73 30.80 28.50 27 <
-1 10 4 1006.00 1102.60 35.60 27 o
-1 11 4 304.75 384.20 29.40 27 o
2 -12 5 96.06 99.70 26.60 27 o
1 -5 5 682.99 462.40 38.60 27 o
-1 10 5 5.46 -5.10 27.60 27 <
-1 11 5 0.90 -20.20 27.00 27 <
2 -12 6 108.82 82.50 26.80 27 o
2 -11 6 142.93 77.00 27.00 27 <
1 -5 6 6046.00 6317.00 65.90 27 o
-1 10 6 189.90 127.40 29.20 27 o
-1 11 6 521.46 592.30 31.40 27 o
-1 12 6 160.39 91.60 27.50 27 o
2 -12 7 71.24 40.70 26.00 27 <
2 -11 7 55.82 8.70 26.80 27 <
1 -4 7 587.13 522.70 37.70 27 o
-1 11 7 19.26 13.00 26.40 27 <
-1 12 7 6.12 10.80 26.10 27 <
2 -11 8 10.81 32.40 25.80 27 <
2 -10 8 175.48 57.30 27.10 27 <
1 -4 8 124.65 181.00 32.80 27 o
-1 11 8 9.05 -23.40 26.50 27 <
-1 12 8 3.72 15.70 26.40 27 <
2 -11 9 5.55 50.80 25.40 27 <
2 -10 9 31.21 32.30 26.20 27 <
1 -4 9 7.66 -52.70 30.00 27 <
1 -3 9 422.51 359.00 33.40 27 o
-1 12 9 26.29 61.20 26.20 27 <
2 -10 10 564.54 357.40 29.70 27 o
1 -3 10 1948.40 2013.80 44.50 27 o
-1 12 10 252.79 157.00 27.10 27 o
2 -10 11 4.76 7.50 25.90 27 <
2 -9 11 22.70 14.40 25.90 27 <
1 -3 11 47.16 76.80 30.30 27 <
1 -2 11 272.44 231.10 32.20 27 o
2 -10 12 12.21 -12.70 25.80 27 <
2 -9 12 21.06 23.00 26.00 27 <
1 -2 12 1403.70 1476.90 40.40 27 o
2 -9 13 13.57 28.80 25.90 27 <
2 -8 13 102.87 64.80 26.30 27 <
1 -2 13 52.13 20.50 29.40 27 <
1 -1 13 559.61 382.20 33.60 27 o
2 -9 14 18.72 34.60 25.70 27 <
2 -8 14 55.82 26.90 25.40 27 <
1 -2 14 1924.10 1953.70 42.90 27 o
1 -1 14 4417.20 4572.60 57.40 27 o
0 7 14 187.28 142.80 27.80 27 o
2 -8 15 5.19 16.00 25.40 27 <
2 -7 15 10.44 18.20 25.80 27 <
1 -1 15 525.92 417.40 33.20 27 o
2 -8 16 84.84 109.20 26.80 27 o
2 -7 16 5.36 -17.00 25.80 27 <
1 -1 16 739.49 868.80 34.30 27 o
0 8 16 5.48 -1.00 26.30 27 <
2 -7 17 60.03 69.30 25.70 27 <
2 -6 17 15.66 -12.80 25.50 27 <
1 1 17 69.39 -37.00 27.40 27 <
2 -6 18 7.76 58.30 25.80 27 <
1 1 18 26.95 3.00 26.50 27 <
1 1 19 11.04 31.40 26.30 27 <
1 2 19 30.26 13.40 26.30 27 <
1 1 20 196.58 135.60 26.80 27 o
1 2 20 168.98 92.40 27.20 27 o
-1 1 -20 147.20 77.10 29.00 28 <
-1 2 -20 137.99 102.30 29.10 28 o
-1 1 -19 23.72 -29.00 28.50 28 <
-1 2 -19 21.07 45.80 27.90 28 <
-1 3 -19 1.39 17.90 27.80 28 <
0 -6 -18 4.97 21.80 26.00 28 <
0 -5 -18 25.09 15.50 26.20 28 <
-1 1 -18 23.35 -13.00 28.60 28 <
-1 2 -18 152.20 239.50 30.70 28 o
-1 3 -18 14.18 57.40 28.00 28 <
-1 2 -17 26.31 34.40 28.40 28 <
-1 3 -17 18.73 -26.60 28.80 28 <
0 -6 -16 577.22 513.30 30.50 28 o
0 -5 -16 110.17 164.30 27.60 28 o
-1 2 -16 229.12 222.10 30.90 28 o
-1 3 -16 394.35 341.00 31.40 28 o
-1 2 -15 13.02 -9.70 30.20 28 <
-1 3 -15 189.24 141.50 31.70 28 o
-1 4 -15 27.77 -9.50 29.80 28 <
0 -5 -14 331.77 286.00 30.20 28 o
-1 3 -14 176.23 205.60 31.50 28 o
-1 4 -14 431.63 388.10 33.20 28 o
-1 3 -13 163.03 173.80 32.20 28 o
-1 4 -13 1.08 18.30 29.90 28 <
1 -11 -12 6.68 35.00 26.10 28 <
0 -4 -12 41.70 69.90 28.80 28 <
-1 4 -12 358.34 331.40 33.50 28 o
1 -11 -11 58.74 32.20 26.70 28 <
-1 4 -11 15.83 -57.20 30.80 28 <
-1 5 -11 2.88 73.90 32.10 28 <
1 -12 -10 206.41 107.20 28.20 28 o
1 -11 -10 47.27 17.60 27.00 28 <
0 -4 -10 489.36 522.10 33.00 28 o
-1 4 -10 106.40 43.30 30.50 28 <
-1 5 -10 1914.90 2067.50 45.20 28 o
1 -12 -9 59.86 108.60 27.30 28 o
1 -11 -9 51.28 50.20 27.20 28 <
1 -10 -9 146.30 88.20 28.70 28 o
-1 5 -9 291.64 230.40 32.80 28 o
1 -11 -8 9.96 -45.00 27.20 28 <
1 -10 -8 1536.50 1467.50 39.10 28 o
0 -3 -8 15908.00 15394.00 97.00 28 o
-1 5 -8 223.80 164.70 30.50 28 o
-1 6 -8 73.77 108.00 30.20 28 o
1 -11 -7 24.23 33.00 27.70 28 <
1 -10 -7 7.56 -69.80 28.10 28 <
-1 6 -7 146.84 164.20 30.30 28 o
1 -10 -6 61.05 36.70 28.60 28 <
0 -2 -6 1326.50 1263.20 44.60 28 o
-1 6 -6 63.71 108.30 29.20 28 o
-1 7 -6 722.23 729.60 34.30 28 o
1 -10 -5 7.10 37.80 28.00 28 <
1 -9 -5 36.75 6.00 28.50 28 <
-1 6 -5 114.75 -25.40 29.80 28 <
-1 7 -5 245.60 283.70 30.70 28 o
1 -10 -4 1128.30 1382.40 38.50 28 o
1 -9 -4 57.60 18.60 28.60 28 <
-1 7 -4 350.68 299.80 31.70 28 o
-1 8 -4 25.94 11.50 28.80 28 <
1 -9 -3 101.35 114.50 28.60 28 o
-1 7 -3 203.73 154.80 31.40 28 o
-1 8 -3 175.99 114.30 29.50 28 o
1 -9 -2 90.89 -0.90 28.40 28 <
1 -8 -2 71.95 31.00 28.90 28 <
-1 8 -2 60.62 57.60 29.20 28 <
-1 9 -2 97.66 178.90 29.30 28 o
1 -9 -1 29.37 61.20 27.60 28 <
1 -8 -1 52.78 71.40 28.80 28 <
-1 8 -1 84.90 67.30 28.90 28 <
-1 9 -1 10.17 -7.80 27.90 28 <
1 -8 0 25.77 -20.00 28.00 28 <
-1 10 0 25.78 -36.20 27.20 28 <
1 -8 1 90.06 62.50 29.40 28 <
1 -7 1 98.54 10.80 29.80 28 <
-1 9 1 29.81 38.50 27.50 28 <
-1 10 1 53.23 91.50 27.80 28 o
1 -7 2 3044.00 3087.10 50.60 28 o
-1 9 2 108.75 103.80 28.30 28 o
-1 10 2 230.40 262.70 29.60 28 o
-1 11 2 10.11 42.90 26.60 28 <
2 -13 3 7.75 1.00 26.00 28 <
1 -7 3 170.84 102.30 30.60 28 o
-1 10 3 14.59 -35.90 27.30 28 <
-1 11 3 3.33 -2.80 26.60 28 <
2 -13 4 42.06 -47.30 26.20 28 <
1 -6 4 48.00 5.50 30.40 28 <
-1 10 4 1060.00 1208.30 36.20 28 o
-1 11 4 195.76 173.40 28.30 28 o
-1 12 4 824.10 923.80 33.90 28 o
2 -13 5 13.00 26.60 25.70 28 <
1 -6 5 66.38 130.00 30.70 28 o
-1 11 5 6.49 -16.60 26.70 28 <
-1 12 5 46.73 42.20 26.60 28 <
-1 13 5 5.79 14.80 26.10 28 <
2 -13 6 64.11 34.40 26.40 28 <
2 -12 6 177.73 2.30 26.80 28 <
1 -6 6 138.20 112.50 31.10 28 o
1 -5 6 7630.60 6320.80 66.10 28 o
-1 11 6 754.38 560.00 31.30 28 o
-1 12 6 104.22 61.40 26.70 28 <
-1 13 6 152.13 116.00 27.00 28 o
2 -12 7 73.31 6.40 25.80 28 <
1 -5 7 287.14 302.70 33.70 28 o
-1 12 7 5.44 -5.00 25.50 28 <
-1 13 7 1.32 -10.10 26.00 28 <
2 -12 8 12.53 15.50 25.90 28 <
2 -11 8 69.25 30.40 26.00 28 <
1 -5 8 226.70 107.80 30.90 28 o
1 -4 8 333.30 390.40 32.60 28 o
-1 12 8 3.02 17.40 25.80 28 <
2 -12 9 9.25 -21.20 26.20 28 <
2 -11 9 2.38 -48.80 26.00 28 <
1 -4 9 10.28 -100.90 30.00 28 <
2 -11 10 312.90 258.00 28.00 28 o
1 -4 10 43.18 -32.20 29.40 28 <
1 -3 10 2850.40 3049.60 49.80 28 o
2 -11 11 23.46 22.30 25.80 28 <
2 -10 11 8.37 9.10 25.80 28 <
1 -4 11 10.04 8.70 28.20 28 <
1 -3 11 41.90 58.70 29.90 28 <
2 -11 12 4.16 12.20 25.30 28 <
2 -10 12 10.29 5.60 25.90 28 <
1 -3 12 1281.40 1365.80 39.00 28 o
1 -2 12 2044.30 2190.50 44.20 28 o
2 -10 13 16.37 -12.40 25.50 28 <
2 -9 13 8.41 9.30 26.10 28 <
1 -3 13 223.77 129.70 30.00 28 o
1 -2 13 38.65 -24.40 29.50 28 <
2 -9 14 16.09 32.90 25.30 28 <
1 -2 14 1171.80 1315.00 39.00 28 o
1 -1 14 5847.80 6075.30 63.60 28 o
0 7 14 193.52 129.00 27.30 28 o
2 -9 15 11.70 25.70 25.60 28 <
2 -8 15 1.56 -16.50 25.60 28 <
1 -2 15 6.97 11.90 27.80 28 <
1 -1 15 534.30 562.80 34.20 28 o
2 -8 16 62.87 73.20 25.80 28 <
1 -1 16 588.19 663.60 33.10 28 o
0 8 16 38.40 28.70 26.60 28 <
2 -7 17 78.91 34.40 25.90 28 <
1 -1 17 49.63 16.50 27.10 28 <
1 1 18 38.06 72.70 26.60 28 <
1 1 19 36.00 12.80 26.30 28 <
1 2 19 30.65 36.50 25.90 28 <
1 1 20 142.82 105.50 26.90 28 o
1 2 20 167.40 114.30 26.70 28 o
-1 2 -20 177.72 143.00 29.00 29 o
-1 3 -20 16.88 16.20 28.00 29 <
-1 2 -19 28.69 22.90 28.20 29 <
-1 3 -19 1.23 26.20 28.00 29 <
-1 4 -19 0.34 -13.20 28.20 29 <
0 -6 -18 3.92 -60.40 26.70 29 <
0 -5 -18 21.20 9.70 26.60 29 <
-1 3 -18 6.12 -2.90 28.60 29 <
-1 4 -18 79.03 121.60 28.30 29 o
-1 5 -18 11.12 -25.30 27.60 29 <
-1 3 -17 26.32 37.10 28.80 29 <
-1 4 -17 5.43 26.40 28.70 29 <
-1 5 -17 4.96 -17.70 27.70 29 <
0 -6 -16 637.58 526.20 30.80 29 o
0 -5 -16 117.26 100.40 27.70 29 o
0 -4 -16 166.81 169.20 28.60 29 o
-1 3 -16 494.13 480.10 32.20 29 o
-1 4 -16 66.90 82.90 30.00 29 <
-1 5 -16 175.32 156.60 29.80 29 o
-1 4 -15 6.47 102.20 29.20 29 o
-1 5 -15 0.50 12.80 29.10 29 <
0 -5 -14 274.00 321.60 30.30 29 o
0 -4 -14 22.91 38.80 27.40 29 <
-1 4 -14 389.18 367.20 33.00 29 o
-1 5 -14 1882.70 1988.50 44.30 29 o
-1 6 -14 110.45 216.60 30.20 29 o
-1 4 -13 2.58 14.00 29.70 29 <
-1 5 -13 23.98 26.80 29.80 29 <
-1 6 -13 12.69 62.30 29.80 29 <
0 -4 -12 43.78 60.50 28.10 29 <
-1 5 -12 195.73 222.30 32.10 29 o
-1 6 -12 383.10 449.50 33.30 29 o
1 -11 -11 79.96 41.50 26.50 29 <
-1 5 -11 10.15 -5.80 32.10 29 <
-1 6 -11 3.21 -31.60 30.70 29 <
1 -12 -10 167.47 81.40 27.30 29 <
1 -11 -10 65.35 -15.60 27.00 29 <
0 -4 -10 491.59 511.20 33.30 29 o
0 -3 -10 33.48 -12.90 30.20 29 <
-1 6 -10 731.25 726.90 36.80 29 o
-1 7 -10 406.56 393.70 33.50 29 o
1 -12 -9 29.65 86.60 26.70 29 o
1 -11 -9 35.70 26.60 27.00 29 <
-1 6 -9 1.84 1.30 31.10 29 <
-1 7 -9 489.46 457.60 34.90 29 o
1 -12 -8 2.84 -72.10 26.90 29 <
1 -11 -8 9.97 -7.40 26.60 29 <
0 -3 -8 15997.00 15492.90 96.80 29 o
-1 6 -8 46.62 -4.20 31.00 29 <
-1 7 -8 43.54 85.50 31.20 29 <
-1 8 -8 1892.60 2212.70 45.80 29 o
1 -12 -7 6.23 -6.80 27.20 29 <
1 -11 -7 13.16 9.60 27.30 29 <
1 -10 -7 9.07 34.20 27.50 29 <
-1 7 -7 453.71 458.30 33.60 29 o
-1 8 -7 84.34 83.30 31.90 29 <
1 -11 -6 549.74 527.40 31.80 29 o
1 -10 -6 94.98 127.30 28.60 29 o
0 -2 -6 977.72 1070.90 44.30 29 o
-1 7 -6 494.53 537.30 33.80 29 o
-1 8 -6 954.11 983.80 37.20 29 o
1 -11 -5 0.83 -27.00 26.80 29 <
1 -10 -5 13.37 12.50 27.90 29 <
-1 8 -5 65.11 113.30 29.50 29 o
-1 9 -5 52.42 67.90 29.40 29 <
1 -10 -4 844.52 934.70 35.40 29 o
-1 8 -4 17.15 -5.40 28.60 29 <
-1 9 -4 65.41 84.40 28.50 29 <
1 -10 -3 0.57 -0.50 27.40 29 <
1 -9 -3 119.05 119.20 28.20 29 o
-1 8 -3 218.16 146.50 29.50 29 o
-1 9 -3 103.56 89.40 28.20 29 o
-1 10 -3 1.90 -13.50 28.70 29 <
1 -10 -2 213.60 205.50 29.20 29 o
1 -9 -2 48.30 73.10 27.80 29 <
-1 9 -2 73.21 57.50 28.20 29 <
-1 10 -2 221.55 227.00 29.00 29 o
1 -9 -1 10.73 10.40 27.20 29 <
-1 9 -1 15.88 28.60 27.80 29 <
-1 10 -1 44.49 20.20 27.60 29 <
-1 11 -1 5.84 31.90 26.40 29 <
1 -8 0 11.63 36.20 28.30 29 <
-1 10 0 4.12 -5.20 27.80 29 <
1 -9 1 18.53 13.40 27.20 29 <
1 -8 1 51.42 37.20 28.80 29 <
-1 10 1 53.98 55.30 27.70 29 <
-1 11 1 1.60 -14.30 26.60 29 <
-1 12 1 3.85 -3.50 26.80 29 <
1 -8 2 39.15 101.50 28.90 29 o
-1 10 2 245.90 246.40 29.10 29 o
-1 11 2 4.50 -6.60 26.80 29 <
-1 12 2 289.97 256.50 29.10 29 o
1 -8 3 179.83 124.40 29.50 29 o
1 -7 3 177.18 150.30 31.00 29 o
-1 11 3 4.42 45.60 26.40 29 <
-1 12 3 55.67 45.50 27.50 29 <
-1 13 3 28.67 -20.10 26.60 29 <
1 -8 4 53.91 17.50 28.70 29 <
1 -7 4 268.38 333.60 31.80 29 o
-1 11 4 221.87 180.60 28.40 29 o
-1 12 4 601.66 491.30 31.20 29 o
-1 13 4 28.20 -39.10 26.60 29 <
1 -7 5 273.45 240.10 31.30 29 o
-1 12 5 39.42 40.80 27.00 29 <
-1 13 5 2.96 -16.40 26.10 29 <
1 -7 6 435.19 539.70 33.20 29 o
1 -6 6 62.61 29.60 29.60 29 <
-1 12 6 103.57 75.40 27.10 29 <
-1 13 6 147.11 122.80 27.00 29 o
1 -6 7 132.12 113.50 29.90 29 o
-1 13 7 0.68 -0.10 26.20 29 <
1 -6 8 41.81 76.20 29.20 29 <
1 -5 8 228.42 192.00 30.50 29 o
0 3 8 18857.00 18265.30 104.50 29 o
1 -6 9 7.46 4.70 28.30 29 <
1 -5 9 238.21 239.60 30.70 29 o
1 -5 10 1924.20 1812.70 41.00 29 o
1 -4 10 33.87 66.90 30.00 29 <
0 4 10 439.04 424.50 33.70 29 o
1 -5 11 9.03 -17.30 27.90 29 <
1 -4 11 3.84 -1.40 27.50 29 <
2 -11 12 5.54 23.70 25.50 29 <
1 -4 12 364.61 315.30 30.60 29 o
1 -4 13 3.25 -40.60 27.60 29 <
1 -3 13 153.74 114.60 29.40 29 o
1 -4 14 568.13 654.50 32.90 29 o
1 -3 14 169.01 177.60 29.60 29 o
1 -2 14 1464.70 1361.10 38.00 29 o
0 7 14 169.44 131.10 27.60 29 o
0 8 14 29.74 14.40 26.70 29 <
1 -3 15 225.52 221.00 28.90 29 o
1 -2 15 5.40 -31.80 27.80 29 <
1 -3 16 448.20 310.00 30.00 29 o
1 -2 16 123.71 193.50 28.40 29 o
1 -1 16 622.67 645.50 32.70 29 o
0 8 16 9.94 14.70 26.10 29 <
1 -2 17 45.57 -62.60 27.00 29 <
1 -1 17 63.51 50.80 27.00 29 <
1 -2 18 160.41 241.50 28.30 29 o
1 -1 18 21.89 12.80 26.30 29 <
1 -1 19 15.49 27.90 25.90 29 <
1 -1 20 106.96 19.50 26.40 29 <
1 1 20 141.59 86.40 26.30 29 o
-1 4 -19 0.24 -62.30 27.60 30 <
-1 5 -19 0.18 66.40 27.00 30 <
0 -6 -18 5.58 52.00 25.80 30 <
0 -5 -18 30.62 3.60 26.30 30 <
-1 4 -18 124.58 39.40 28.80 30 <
-1 5 -18 12.85 -6.90 27.00 30 <
-1 6 -18 40.73 43.00 27.00 30 <
-1 4 -17 9.42 -9.30 28.20 30 <
-1 5 -17 0.48 24.20 27.90 30 <
-1 6 -17 0.13 -20.50 28.00 30 <
-1 7 -17 9.51 -13.30 27.60 30 <
0 -6 -16 714.56 567.20 31.30 30 o
0 -5 -16 127.17 172.00 27.30 30 o
0 -4 -16 155.45 118.60 27.20 30 o
-1 5 -16 111.32 77.90 29.00 30 <
-1 6 -16 55.08 26.30 28.40 30 <
-1 7 -16 215.31 161.60 28.80 30 o
-1 5 -15 1.59 -15.80 29.10 30 <
-1 6 -15 3.13 -21.80 28.30 30 <
-1 7 -15 0.77 -36.80 28.60 30 <
0 -5 -14 312.21 252.70 29.80 30 o
0 -4 -14 16.84 -18.80 27.10 30 <
-1 5 -14 2442.00 2710.70 48.20 30 o
-1 6 -14 31.62 83.30 29.10 30 <
-1 7 -14 25.21 21.50 28.40 30 <
-1 8 -14 342.20 250.60 30.40 30 o
-1 6 -13 19.01 53.90 29.50 30 <
-1 7 -13 0.71 -24.70 28.90 30 <
-1 8 -13 1.58 52.50 28.40 30 <
0 -4 -12 40.34 52.00 28.20 30 <
0 -3 -12 34.57 77.00 28.60 30 <
-1 6 -12 499.96 586.80 33.80 30 o
-1 7 -12 508.73 598.00 33.80 30 o
-1 8 -12 29.81 22.10 29.40 30 <
-1 6 -11 6.51 -20.10 30.20 30 <
-1 7 -11 21.12 -7.80 29.70 30 <
-1 8 -11 21.83 -64.60 29.40 30 <
1 -12 -10 180.49 120.90 27.00 30 o
0 -4 -10 583.39 581.20 33.40 30 o
0 -3 -10 20.65 -18.60 29.80 30 <
-1 7 -10 603.43 587.00 34.90 30 o
-1 8 -10 757.13 930.10 36.80 30 o
-1 9 -10 612.77 618.80 34.00 30 o
1 -12 -9 25.41 78.80 26.70 30 <
-1 7 -9 595.74 615.00 35.50 30 o
-1 8 -9 60.49 65.20 31.00 30 <
-1 9 -9 16.56 65.20 30.40 30 <
1 -12 -8 5.60 8.40 26.70 30 <
1 -11 -8 6.33 38.80 26.30 30 <
0 -3 -8 16203.00 16045.80 98.40 30 o
-1 8 -8 1149.30 1320.80 40.30 30 o
-1 9 -8 2802.40 2934.30 50.10 30 o
-1 10 -8 2076.10 2220.00 45.30 30 o
1 -13 -7 4.05 33.30 26.30 30 <
1 -12 -7 5.08 -21.70 26.70 30 <
1 -11 -7 22.51 -4.10 26.80 30 <
-1 8 -7 82.58 121.20 32.00 30 o
-1 9 -7 83.78 97.30 31.80 30 o
-1 10 -7 10.69 21.50 30.70 30 <
1 -12 -6 115.38 64.30 26.80 30 <
1 -11 -6 520.73 533.50 31.10 30 o
0 -2 -6 1060.60 1088.90 44.50 30 o
-1 8 -6 1239.70 1241.40 38.50 30 o
-1 9 -6 1380.90 1399.90 40.40 30 o
-1 10 -6 41.18 101.90 29.80 30 o
1 -12 -5 52.94 88.80 26.90 30 o
1 -11 -5 2.52 39.30 26.20 30 <
-1 9 -5 40.66 -14.50 28.10 30 <
-1 10 -5 5.24 8.50 29.40 30 <
-1 11 -5 0.52 16.10 29.00 30 <
1 -12 -4 871.87 760.40 32.10 30 o
1 -11 -4 199.64 188.40 27.90 30 o
1 -10 -4 1290.70 1177.90 36.40 30 o
-1 9 -4 68.39 71.90 28.20 30 <
-1 10 -4 853.62 942.90 36.00 30 o
-1 11 -4 274.29 237.20 29.80 30 o
1 -11 -3 3.10 22.80 26.40 30 <
1 -10 -3 2.21 17.10 27.10 30 <
-1 10 -3 0.98 -30.60 27.80 30 <
-1 11 -3 3.53 48.90 27.20 30 <
-1 12 -3 69.09 89.80 28.70 30 o
1 -11 -2 9.25 6.20 26.80 30 <
1 -10 -2 202.05 157.30 28.80 30 o
-1 10 -2 187.37 258.30 29.00 30 o
-1 11 -2 7.46 70.90 26.40 30 <
-1 12 -2 244.97 268.10 28.60 30 o
1 -11 -1 4.15 -25.90 26.60 30 <
1 -10 -1 40.72 15.40 27.00 30 <
-1 10 -1 59.97 45.30 27.40 30 <
-1 11 -1 2.43 19.10 26.30 30 <
-1 12 -1 2.42 -23.70 26.50 30 <
-1 13 -1 2.50 -21.10 26.20 30 <
1 -10 0 7.81 24.10 26.80 30 <
-1 12 0 198.53 204.20 28.50 30 o
-1 14 0 165.92 61.50 26.80 30 <
1 -10 1 51.45 75.90 26.90 30 <
1 -9 1 11.94 46.20 27.20 30 <
-1 11 1 4.86 30.20 26.60 30 <
-1 12 1 1.97 -21.00 26.40 30 <
-1 13 1 0.48 -36.20 25.80 30 <
-1 14 1 1.34 4.60 25.40 30 <
1 -10 2 304.88 427.20 30.40 30 o
1 -9 2 92.57 205.10 29.00 30 o
-1 12 2 238.75 188.60 28.00 30 o
-1 13 2 3.14 -14.40 26.00 30 <
1 -9 3 112.64 70.60 28.30 30 <
1 -8 3 211.86 168.20 28.80 30 o
-1 12 3 79.00 80.40 26.80 30 o
-1 13 3 26.28 -30.00 25.90 30 <
1 -9 4 79.28 19.80 27.90 30 <
1 -8 4 26.09 -6.80 28.10 30 <
-1 13 4 16.63 18.90 25.80 30 <
1 -8 5 62.46 46.90 29.10 30 <
-1 13 5 3.96 19.50 26.00 30 <
1 -8 6 1008.50 949.00 35.60 30 o
1 -7 6 521.62 505.60 33.10 30 o
1 -8 7 108.69 50.60 28.40 30 <
1 -7 7 428.80 407.20 31.70 30 o
1 -7 8 50.57 48.30 28.70 30 <
1 -6 8 26.67 105.10 28.80 30 o
0 3 8 19454.00 17839.60 103.10 30 o
1 -7 9 591.80 631.10 32.10 30 o
1 -6 9 3.32 4.20 28.20 30 <
1 -6 10 871.31 810.60 34.10 30 o
1 -5 10 2531.40 2426.70 45.50 30 o
0 4 10 540.08 520.70 33.80 30 o
1 -6 11 4.28 -24.20 27.70 30 <
1 -5 11 5.43 -11.60 27.90 30 <
1 -6 12 490.77 555.00 32.00 30 o
1 -5 12 240.19 181.00 28.80 30 o
1 -4 12 511.00 510.90 31.80 30 o
0 5 12 53.86 36.70 27.90 30 <
0 6 12 493.16 598.40 32.40 30 o
0 7 12 443.26 421.20 31.60 30 o
1 -5 13 34.00 56.00 27.70 30 <
1 -4 13 23.93 -59.40 27.30 30 <
1 -5 14 2325.90 2219.30 43.10 30 o
1 -4 14 327.53 381.60 30.40 30 o
1 -3 14 235.08 243.20 28.80 30 o
0 7 14 142.45 120.20 27.20 30 o
0 8 14 34.08 59.60 26.20 30 <
1 -4 15 7.88 6.20 27.00 30 <
1 -3 15 216.50 193.30 28.10 30 o
1 -4 16 211.46 176.70 27.50 30 o
1 -3 16 373.65 275.90 28.50 30 o
1 -2 16 210.77 211.30 28.70 30 o
1 -3 17 19.30 -1.10 26.10 30 <
1 -2 17 26.42 -66.60 26.70 30 <
1 -3 18 50.12 26.80 25.90 30 <
1 -2 18 104.72 105.90 26.90 30 o
1 -1 18 21.05 35.10 26.00 30 <
1 -2 19 20.88 -23.50 26.20 30 <
1 -1 19 28.89 30.00 25.70 30 <
1 -2 20 179.31 45.40 26.60 30 <
1 -1 20 84.84 -1.50 26.20 30 <
0 -6 -18 9.02 -22.60 26.30 31 <
0 -5 -18 26.16 13.20 27.30 31 <
0 -4 -18 99.11 41.40 28.70 31 <
-1 7 -17 1.76 29.00 27.50 31 <
0 -6 -16 806.03 633.60 31.60 31 o
0 -5 -16 110.81 133.40 27.70 31 o
0 -4 -16 95.26 63.60 27.50 31 <
-1 7 -16 221.49 172.60 29.20 31 o
-1 8 -16 268.66 230.10 29.50 31 o
-1 8 -15 1.19 29.40 27.80 31 <
-1 9 -15 2.05 23.70 27.70 31 <
0 -5 -14 397.06 408.10 30.90 31 o
0 -4 -14 11.35 42.30 27.10 31 <
0 -3 -14 35.35 54.80 27.30 31 <
-1 8 -14 269.75 154.50 30.10 31 o
-1 9 -14 14.09 5.20 28.00 31 <
-1 10 -14 21.49 47.30 27.60 31 <
-1 8 -13 3.68 55.00 28.50 31 <
-1 9 -13 5.60 23.90 28.30 31 <
-1 10 -13 1.14 44.80 27.50 31 <
0 -4 -12 40.18 50.10 28.70 31 <
0 -3 -12 18.79 83.20 29.00 31 <
-1 9 -12 134.76 44.00 29.40 31 <
-1 10 -12 17.36 33.10 28.70 31 <
-1 11 -12 2.29 -14.10 27.70 31 <
-1 9 -11 0.53 -65.90 28.70 31 <
-1 10 -11 43.22 47.70 29.00 31 <
-1 11 -11 55.73 15.90 28.50 31 <
0 -4 -10 623.21 672.50 33.90 31 o
0 -3 -10 26.58 60.20 29.80 31 <
-1 9 -10 676.04 617.70 34.30 31 o
-1 10 -10 552.24 443.00 32.30 31 o
-1 11 -10 43.33 7.40 29.10 31 <
-1 12 -10 152.42 163.50 29.30 31 o
-1 10 -9 107.41 87.10 30.80 31 <
-1 11 -9 40.50 -23.20 29.20 31 <
-1 12 -9 29.45 -0.30 28.90 31 <
0 -3 -8 16106.00 15754.50 97.60 31 o
0 -2 -8 156.91 -9.30 36.00 31 <
-1 10 -8 1748.10 1766.60 42.10 31 o
-1 11 -8 7.63 72.10 29.00 31 <
-1 12 -8 2.02 26.00 28.40 31 <
1 -13 -7 0.60 -36.80 26.50 31 <
1 -12 -7 7.77 1.10 26.70 31 <
-1 11 -7 13.79 56.20 28.80 31 <
-1 12 -7 4.57 51.70 28.10 31 <
-1 13 -7 1.29 19.80 27.70 31 <
1 -13 -6 173.17 83.90 27.00 31 o
1 -12 -6 120.46 65.70 27.50 31 <
0 -2 -6 984.03 998.80 45.20 31 o
-1 11 -6 568.56 601.60 33.40 31 o
-1 12 -6 120.52 122.50 29.20 31 o
-1 13 -6 137.23 68.30 29.00 31 <
1 -13 -5 1.97 61.40 26.10 31 <
1 -12 -5 55.73 -25.80 27.00 31 <
-1 11 -5 0.72 -44.00 29.10 31 <
-1 12 -5 52.38 56.50 28.80 31 <
-1 13 -5 2.50 59.30 28.00 31 <
1 -13 -4 9.25 43.60 26.80 31 <
1 -12 -4 596.52 536.60 31.10 31 o
-1 12 -4 759.68 695.50 34.10 31 o
-1 13 -4 9.46 -18.30 28.10 31 <
1 -13 -3 24.27 -32.80 26.20 31 <
1 -12 -3 48.71 52.20 26.80 31 <
1 -11 -3 6.77 20.30 27.00 31 <
-1 12 -3 66.42 16.10 28.70 31 <
-1 13 -3 22.93 52.60 27.80 31 <
1 -13 -2 6.85 8.60 26.10 31 <
1 -12 -2 228.56 171.20 27.80 31 o
1 -11 -2 70.90 -2.30 27.00 31 <
-1 13 -2 15.70 16.70 27.30 31 <
1 -13 -1 0.25 -42.50 26.40 31 <
1 -12 -1 2.19 70.10 26.80 31 <
1 -11 -1 1.61 -43.30 26.60 31 <
-1 13 -1 1.08 19.60 26.70 31 <
-1 14 -1 1.66 32.20 27.20 31 <
1 -12 0 261.94 280.70 29.20 31 o
-1 14 0 84.04 63.20 26.40 31 <
1 -12 1 3.03 27.60 26.40 31 <
1 -11 1 1.74 46.30 26.30 31 <
1 -10 1 108.35 71.80 27.30 31 <
-1 14 1 2.56 44.50 25.60 31 <
1 -12 2 352.15 349.90 29.70 31 o
1 -11 2 46.91 5.60 27.20 31 <
1 -10 2 210.41 212.50 29.30 31 o
1 -11 3 4.73 -16.60 27.10 31 <
1 -10 3 1.04 -4.80 27.40 31 <
1 -11 4 354.65 285.70 29.80 31 o
1 -10 4 842.32 1036.20 35.60 31 o
1 -9 4 82.64 97.70 28.60 31 o
1 -11 5 0.65 16.70 26.40 31 <
1 -10 5 6.79 8.70 27.30 31 <
1 -9 5 41.18 90.30 28.20 31 o
1 -10 6 67.65 106.70 27.50 31 o
1 -9 6 1459.30 1419.40 38.30 31 o
0 2 6 1368.30 1264.80 47.90 31 o
1 -10 7 11.41 7.80 27.40 31 <
1 -9 7 86.61 61.00 28.60 31 <
1 -8 7 103.72 53.70 28.80 31 <
1 -9 8 2614.10 2990.40 48.20 31 o
1 -8 8 1269.20 1145.80 37.10 31 o
0 3 8 17679.00 17557.30 102.80 31 o
1 -9 9 15.47 -9.40 28.10 31 <
1 -8 9 66.24 93.80 28.20 31 o
1 -9 10 615.02 748.50 33.00 31 o
1 -8 10 592.86 794.70 34.20 31 o
1 -7 10 475.60 404.30 30.70 31 o
0 4 10 524.27 604.70 34.70 31 o
0 6 10 205.86 222.00 31.00 31 o
1 -8 11 17.06 5.10 26.80 31 <
1 -7 11 15.07 46.50 26.70 31 <
1 -8 12 47.99 33.20 26.50 31 <
1 -7 12 474.80 543.40 31.40 31 o
1 -6 12 378.46 440.30 31.00 31 o
0 5 12 136.44 151.50 28.90 31 o
0 6 12 529.44 642.50 33.00 31 o
0 7 12 333.56 283.10 29.90 31 o
1 -7 13 0.31 2.40 26.40 31 <
1 -6 13 11.98 3.40 26.80 31 <
1 -7 14 9.44 25.00 26.30 31 <
1 -6 14 29.42 30.60 26.50 31 <
1 -5 14 2109.40 1941.70 41.90 31 o
0 6 14 229.97 235.70 28.40 31 o
0 7 14 137.02 133.10 27.10 31 o
0 8 14 71.75 75.10 27.30 31 <
0 9 14 17.60 -13.10 26.20 31 <
1 -7 15 2.24 23.70 25.80 31 <
1 -6 15 3.81 -10.40 26.10 31 <
1 -5 15 1.50 12.40 26.50 31 <
1 -6 16 57.27 39.90 26.00 31 <
1 -5 16 134.13 86.90 26.60 31 o
1 -4 16 70.57 102.50 26.60 31 o
1 -6 17 2.29 -1.20 25.70 31 <
1 -5 17 0.72 16.50 25.70 31 <
1 -4 17 6.53 7.70 25.60 31 <
1 -3 17 29.67 -20.20 26.00 31 <
1 -5 18 11.59 36.50 25.70 31 <
1 -4 18 70.67 114.60 25.90 31 o
1 -3 18 3.77 -29.60 26.10 31 <
1 -5 19 0.58 19.90 25.60 31 <
1 -4 19 0.36 41.60 25.20 31 <
1 -3 19 0.66 -17.00 25.60 31 <
1 -2 19 30.72 -14.60 25.70 31 <
1 -3 20 28.91 56.00 25.50 31 <
1 -2 20 130.74 66.60 26.50 31 <
1 -1 20 218.65 126.90 26.70 31 o
0 -3 -20 14.13 14.10 28.40 32 <
0 -6 -18 9.86 7.00 26.00 32 <
0 -5 -18 46.07 8.70 26.60 32 <
0 -4 -18 86.00 91.60 28.30 32 o
0 -3 -18 29.43 0.40 27.80 32 <
0 -6 -16 844.50 776.00 32.90 32 o
0 -5 -16 100.38 117.60 27.30 32 o
0 -4 -16 88.43 88.20 27.60 32 o
0 -3 -16 12.12 -5.50 27.10 32 <
0 -5 -14 523.79 472.20 31.40 32 o
0 -4 -14 10.14 46.60 26.80 32 <
0 -3 -14 22.92 -16.90 27.60 32 <
0 -4 -12 48.98 83.60 29.00 32 <
0 -3 -12 22.02 -12.30 29.20 32 <
0 -2 -12 1460.70 1600.20 40.20 32 o
0 -3 -10 33.71 -22.20 30.90 32 <
0 -2 -10 2175.00 2060.60 44.40 32 o
0 -3 -8 16591.00 16994.60 101.30 32 o
0 -2 -8 116.96 -18.20 36.20 32 <
0 -2 -6 978.85 1090.50 45.80 32 o
1 -13 -5 5.97 -23.40 26.20 32 <
1 -13 -4 8.08 51.20 26.30 32 <
0 -1 -4 1719.90 1794.50 65.60 32 o
1 -13 -3 27.88 22.50 26.30 32 <
1 -13 -2 15.38 32.20 26.10 32 <
1 -14 -1 1.83 -8.00 26.00 32 <
1 -13 -1 0.32 -23.30 26.60 32 <
1 -14 0 74.38 4.80 25.80 32 <
1 -12 0 346.30 354.90 29.90 32 o
1 -14 1 1.87 39.30 26.20 32 <
1 -13 1 0.28 -9.70 25.90 32 <
1 -12 1 2.44 39.50 26.30 32 <
1 -13 2 21.67 18.70 26.10 32 <
1 -12 2 249.88 196.60 27.90 32 o
1 -13 3 18.13 35.40 25.90 32 <
1 -12 3 53.46 24.10 26.70 32 <
1 -13 4 9.52 -26.50 26.30 32 <
1 -12 4 581.22 559.50 30.50 32 o
1 -11 4 262.42 198.10 28.30 32 o
1 -13 5 4.61 8.60 25.90 32 <
1 -12 5 39.00 37.90 26.10 32 <
1 -11 5 0.67 -42.50 25.80 32 <
1 -13 6 140.73 95.40 26.80 32 o
1 -12 6 108.51 77.10 26.50 32 <
1 -11 6 437.03 394.70 29.90 32 o
0 2 6 1181.80 1247.80 47.00 32 o
1 -13 7 1.99 5.30 26.40 32 <
1 -12 7 6.30 9.10 26.10 32 <
1 -11 7 11.27 24.20 26.70 32 <
1 -10 7 10.16 -27.40 26.90 32 <
1 -12 8 3.60 13.40 25.60 32 <
1 -11 8 7.09 -8.70 25.80 32 <
1 -10 8 1523.30 1547.40 39.00 32 o
0 3 8 17025.00 16691.50 100.80 32 o
0 5 8 85.75 142.70 31.60 32 o
1 -12 9 36.42 35.00 26.20 32 <
1 -11 9 39.06 47.20 26.00 32 <
1 -10 9 88.90 86.00 27.30 32 o
1 -12 10 242.86 25.70 26.30 32 <
1 -11 10 56.19 19.00 26.00 32 <
1 -10 10 518.51 396.40 29.90 32 o
1 -9 10 584.83 514.10 30.80 32 o
0 4 10 495.68 512.50 34.30 32 o
0 6 10 334.25 353.10 31.30 32 o
1 -11 11 62.15 36.00 26.20 32 <
1 -10 11 44.79 29.50 26.30 32 <
1 -9 11 0.83 36.60 26.00 32 <
1 -11 12 2.71 9.70 25.50 32 <
1 -10 12 11.71 11.30 25.90 32 <
1 -9 12 97.51 58.70 26.70 32 <
1 -8 12 62.90 -5.20 26.20 32 <
0 5 12 242.36 354.80 30.40 32 o
0 6 12 522.42 676.50 33.20 32 o
0 7 12 381.50 327.60 30.60 32 o
0 8 12 28.71 29.30 26.80 32 <
1 -10 13 1.14 -4.10 25.60 32 <
1 -9 13 4.77 4.20 26.00 32 <
1 -8 13 1.19 -6.40 25.80 32 <
1 -10 14 16.54 -20.90 25.30 32 <
1 -9 14 7.69 40.50 25.60 32 <
1 -8 14 168.32 130.10 26.90 32 o
1 -7 14 14.40 5.70 26.10 32 <
0 6 14 123.49 109.20 27.60 32 o
0 7 14 103.97 106.50 27.00 32 o
0 8 14 78.56 77.30 26.80 32 <
0 9 14 18.37 12.90 26.20 32 <
0 10 14 42.40 22.30 26.10 32 <
1 -9 15 1.48 -6.40 25.70 32 <
1 -8 15 0.78 13.70 26.20 32 <
1 -7 15 1.15 -8.10 25.80 32 <
1 -8 16 269.89 200.20 27.50 32 o
1 -7 16 124.78 132.80 26.90 32 o
1 -6 16 93.17 111.90 26.80 32 o
1 -7 17 1.96 -6.30 25.80 32 <
1 -6 17 2.26 -18.00 25.50 32 <
1 -6 18 26.11 28.80 25.70 32 <
1 -5 18 14.71 -1.80 25.40 32 <
1 -5 19 0.96 29.60 25.30 32 <
1 -4 19 0.23 7.40 25.40 32 <
0 -3 -20 9.51 -57.80 28.70 33 <
0 -2 -20 106.46 64.80 28.60 33 <
0 -1 -20 38.04 35.10 28.60 33 <
0 -6 -18 16.38 9.10 26.00 33 <
0 -5 -18 48.82 -0.60 26.90 33 <
0 -4 -18 124.93 86.60 28.70 33 o
0 -3 -18 23.53 9.10 28.20 33 <
0 -2 -18 100.40 91.70 29.80 33 o
0 -1 -18 211.99 59.20 29.30 33 <
0 -5 -16 120.31 113.90 27.30 33 o
0 -4 -16 55.04 70.60 27.40 33 <
0 -3 -16 13.02 53.80 27.10 33 <
0 -2 -16 894.21 945.50 37.00 33 o
0 -1 -16 1199.70 1440.10 40.80 33 o
0 -5 -14 547.16 452.10 31.90 33 o
0 -4 -14 44.76 12.00 27.20 33 <
0 -3 -14 22.93 11.70 28.00 33 <
0 -2 -14 280.26 295.30 30.40 33 o
0 -1 -14 6222.60 6164.80 63.50 33 o
0 -4 -12 111.89 127.90 29.30 33 o
0 -3 -12 14.38 87.80 29.20 33 o
0 -2 -12 770.84 847.30 35.60 33 o
0 -3 -10 45.53 64.40 30.20 33 <
0 -2 -10 1631.80 1653.90 42.10 33 o
0 -3 -8 16565.00 15839.50 97.60 33 o
0 -2 -8 139.03 128.00 35.90 33 o
0 -1 -8 5086.40 5283.90 63.00 33 o
0 -2 -6 920.46 1082.80 45.40 33 o
0 -1 -6 3754.60 3298.10 56.70 33 o
0 -1 -4 1521.90 1568.90 62.50 33 o
1 -14 0 74.89 62.10 26.10 33 <
1 -14 1 3.53 34.70 25.90 33 <
1 -13 4 11.31 -11.80 26.10 33 <
0 1 4 1985.90 1987.00 63.60 33 o
1 -13 5 3.19 14.00 25.60 33 <
1 -13 6 149.91 62.80 26.80 33 <
0 2 6 974.89 1077.40 45.60 33 o
0 4 6 14571.00 15651.70 98.00 33 o
1 -13 7 1.12 -44.80 25.60 33 <
1 -12 8 4.74 7.80 25.60 33 <
0 3 8 14759.00 14386.80 93.80 33 o
0 5 8 152.48 150.80 32.00 33 o
1 -12 9 35.35 45.70 25.60 33 <
1 -12 10 157.01 39.80 25.80 33 <
0 3 10 45.41 99.50 30.30 33 o
0 4 10 360.62 417.90 32.50 33 o
0 6 10 634.37 517.40 33.20 33 o
0 7 10 199.96 137.10 29.60 33 o
1 -11 11 66.14 35.20 25.50 33 <
1 -11 12 1.77 3.10 25.40 33 <
0 4 12 119.92 137.60 29.70 33 o
0 5 12 266.05 337.00 30.40 33 o
0 6 12 486.22 552.10 31.70 33 o
0 7 12 463.32 380.00 30.60 33 o
0 8 12 25.98 5.60 26.70 33 <
0 9 12 55.93 27.80 26.80 33 <
0 10 12 32.95 8.70 26.40 33 <
1 -10 13 0.98 9.70 25.60 33 <
1 -10 14 12.95 28.70 25.10 33 <
0 5 14 499.08 484.10 31.00 33 o
0 6 14 85.77 90.20 27.20 33 o
0 7 14 221.55 238.70 28.00 33 o
0 8 14 99.44 102.70 27.50 33 o
0 9 14 18.32 2.50 26.20 33 <
0 10 14 22.34 15.10 26.00 33 <
1 -9 15 2.26 10.90 25.60 33 <
0 6 16 665.65 507.40 30.50 33 o
0 -3 -20 10.89 -42.50 28.60 34 <
0 -2 -20 114.50 212.20 29.70 34 o
0 -1 -20 50.49 14.30 28.70 34 <
0 0 -20 47.85 17.00 28.60 34 <
0 1 -20 65.11 65.70 28.50 34 <
0 2 -20 175.82 148.40 29.40 34 o
0 -5 -18 53.58 49.60 27.30 34 <
0 -4 -18 112.88 132.60 28.70 34 o
0 -3 -18 45.14 3.50 29.20 34 <
0 -2 -18 84.88 56.00 28.70 34 <
0 -1 -18 152.84 97.00 29.50 34 o
0 0 -18 53.71 21.60 28.90 34 <
0 1 -18 195.71 129.10 29.80 34 o
0 -5 -16 114.00 140.50 27.90 34 o
0 -4 -16 280.11 292.70 29.20 34 o
0 -3 -16 30.27 38.20 27.80 34 <
0 -2 -16 1005.80 1140.10 37.70 34 o
0 -1 -16 891.68 1186.40 39.20 34 o
0 0 -16 748.53 833.40 36.50 34 o
0 1 -16 1464.50 1625.00 41.70 34 o
0 -5 -14 621.06 687.00 33.30 34 o
0 -4 -14 102.38 152.40 27.90 34 o
0 -3 -14 25.96 -1.70 27.70 34 <
0 -2 -14 165.83 262.10 30.00 34 o
0 -1 -14 3381.50 3582.40 52.80 34 o
0 0 -14 62.30 90.70 31.40 34 <
0 -4 -12 130.81 212.10 30.30 34 o
0 -3 -12 65.72 96.60 30.20 34 o
0 -2 -12 663.62 760.80 35.50 34 o
0 -1 -12 2113.50 1771.20 42.10 34 o
0 0 -12 246.01 290.80 31.30 34 o
0 -3 -10 82.96 50.90 31.90 34 <
0 -2 -10 1220.30 1169.50 39.20 34 o
0 -1 -10 383.51 483.10 36.00 34 o
0 -3 -8 16721.00 16679.40 100.30 34 o
0 -2 -8 207.33 200.50 38.00 34 o
0 -1 -8 3778.30 3376.70 55.80 34 o
0 -2 -6 828.42 1113.00 46.90 34 o
0 -1 -6 2565.10 2204.40 55.20 34 o
0 -1 -4 1634.40 1460.80 64.80 34 o
0 1 4 1890.00 1731.60 63.20 34 o
0 3 4 5957.30 5803.30 69.60 34 o
0 2 6 777.47 1049.50 46.20 34 o
0 4 6 9846.90 9728.40 81.40 34 o
0 5 6 5723.70 5464.20 62.80 34 o
0 2 8 290.70 167.60 37.70 34 o
0 3 8 14557.00 13986.20 92.80 34 o
0 5 8 153.57 273.10 33.50 34 o
0 6 8 1197.00 1323.70 39.20 34 o
0 7 8 1492.80 1553.30 40.80 34 o
0 8 8 6385.20 6586.40 65.20 34 o
0 3 10 86.61 125.30 30.90 34 o
0 4 10 384.58 340.80 32.50 34 o
0 6 10 702.30 822.80 35.80 34 o
0 7 10 158.24 103.70 28.90 34 o
0 8 10 52.53 56.60 28.00 34 <
0 9 10 141.99 150.10 28.50 34 o
0 10 10 419.37 336.30 30.10 34 o
0 11 10 558.85 566.50 31.40 34 o
0 12 10 163.69 182.30 27.60 34 o
0 4 12 114.32 180.90 29.40 34 o
0 5 12 279.86 446.30 31.10 34 o
0 6 12 432.00 504.90 32.10 34 o
0 7 12 553.79 409.10 31.30 34 o
0 8 12 26.13 27.40 27.20 34 <
0 9 12 40.61 11.30 26.90 34 <
0 10 12 67.16 50.70 26.80 34 <
0 11 12 40.50 77.10 26.30 34 <
0 5 14 542.77 482.20 31.00 34 o
0 6 14 106.39 93.60 27.60 34 o
0 7 14 299.34 283.60 28.50 34 o
0 8 14 131.99 85.80 27.20 34 o
0 9 14 31.82 22.50 25.90 34 <
0 10 14 56.96 -27.50 27.10 34 <
0 6 16 611.99 398.70 29.90 34 o
0 7 16 70.23 64.70 26.60 34 <
0 -2 -20 130.33 125.60 29.10 35 o
0 -1 -20 53.89 41.50 28.70 35 <
0 0 -20 84.79 51.80 29.40 35 <
0 1 -20 27.15 79.30 28.70 35 <
0 2 -20 69.83 66.20 28.30 35 <
0 3 -20 60.19 31.00 28.60 35 <
0 -2 -18 132.80 120.00 30.00 35 o
0 -1 -18 107.18 56.20 29.70 35 <
0 0 -18 72.96 -8.10 29.20 35 <
0 1 -18 76.18 111.40 30.20 35 o
0 2 -18 121.85 246.30 30.40 35 o
0 3 -18 35.99 83.80 29.20 35 <
0 4 -18 92.85 94.30 28.80 35 o
0 5 -18 57.36 49.00 28.50 35 <
0 6 -18 16.51 -39.20 28.00 35 <
0 -2 -16 1317.60 950.40 37.20 35 o
0 -1 -16 958.52 1073.30 38.50 35 o
0 0 -16 734.73 826.40 36.00 35 o
0 1 -16 930.91 1265.90 39.20 35 o
0 2 -16 736.46 1173.30 38.00 35 o
0 3 -16 47.44 86.10 30.20 35 <
0 4 -16 114.43 375.90 32.30 35 o
0 5 -16 108.98 210.40 30.10 35 o
0 6 -16 349.34 249.80 31.40 35 o
0 7 -16 44.84 62.30 28.70 35 <
0 8 -16 52.60 108.50 28.20 35 o
0 -2 -14 131.22 252.70 29.40 35 o
0 -1 -14 2617.00 2610.40 46.70 35 o
0 0 -14 122.77 173.20 32.30 35 o
0 1 -14 2480.20 2791.40 49.30 35 o
0 2 -14 101.29 241.30 32.50 35 o
0 3 -14 137.45 250.20 32.10 35 o
0 4 -14 140.61 218.40 31.40 35 o
0 5 -14 308.74 405.10 33.00 35 o
0 6 -14 125.56 147.00 30.10 35 o
0 7 -14 374.51 336.50 32.10 35 o
0 8 -14 159.27 98.80 29.70 35 o
0 9 -14 36.58 -6.80 28.80 35 <
0 10 -14 109.13 76.60 27.90 35 <
0 -2 -12 661.33 563.40 33.60 35 o
0 -1 -12 2010.60 1455.80 40.00 35 o
0 0 -12 319.08 342.60 31.30 35 o
0 1 -12 1603.30 1981.90 43.50 35 o
0 2 -12 397.04 661.10 35.80 35 o
0 3 -12 218.06 367.10 34.00 35 o
0 4 -12 236.13 300.50 33.60 35 o
0 5 -12 249.91 471.70 33.70 35 o
0 6 -12 379.85 470.90 33.90 35 o
0 7 -12 539.38 489.00 33.50 35 o
0 8 -12 111.87 51.60 30.00 35 <
0 9 -12 83.07 158.20 30.00 35 o
0 10 -12 102.42 129.30 28.60 35 o
0 11 -12 85.88 64.00 28.50 35 <
0 -2 -10 1187.20 1286.80 39.50 35 o
0 -1 -10 266.92 386.80 33.60 35 o
0 0 -10 806.20 1279.40 41.20 35 o
0 1 -10 233.23 588.50 34.70 35 o
0 2 -10 928.60 1152.90 38.90 35 o
0 3 -10 454.07 516.60 34.30 35 o
0 4 -10 467.35 342.30 34.50 35 o
0 5 -10 376.44 424.30 34.50 35 o
0 6 -10 862.36 521.20 34.80 35 o
0 7 -10 426.61 448.20 33.80 35 o
0 9 -10 250.72 244.80 30.70 35 o
0 10 -10 346.03 252.60 31.20 35 o
0 11 -10 375.69 306.40 31.60 35 o
0 12 -10 128.37 21.00 28.90 35 <
0 -2 -8 276.20 220.70 38.50 35 o
0 -1 -8 2683.90 2660.30 52.30 35 o
0 0 -8 3420.00 5313.20 64.70 35 o
0 1 -8 2515.80 3274.30 54.70 35 o
0 2 -8 331.47 377.20 38.40 35 o
0 3 -8 13102.00 9451.60 78.20 35 o
0 13 -8 124.35 90.00 29.10 35 o
0 -2 -6 1048.20 1253.50 47.00 35 o
0 -1 -6 1918.60 2010.80 51.20 35 o
0 0 -6 11969.00 15783.50 100.40 35 o
0 1 -6 1953.20 2158.70 52.00 35 o
0 2 -6 1635.30 1462.60 45.80 35 o
0 -1 -4 2055.90 2214.60 65.50 35 o
0 0 -4 17498.00 17338.80 110.10 35 o
0 1 -4 3129.10 2583.80 65.10 35 o
0 0 -2 34704.00 24016.10 138.90 35 o
0 14 -2 125.37 119.90 28.70 35 o
0 14 0 96.77 66.80 27.40 35 <
0 0 2 35782.00 23356.20 136.80 35 o
0 13 2 259.27 209.40 27.60 35 o
0 14 2 107.68 65.00 27.00 35 <
0 0 4 21191.00 16081.60 107.60 35 o
0 1 4 1345.80 2360.30 65.30 35 o
0 3 4 4102.60 3321.50 59.30 35 o
0 12 4 201.30 194.00 28.40 35 o
0 13 4 68.67 27.80 27.00 35 <
0 0 6 15639.00 15172.60 99.50 35 o
0 1 6 1965.20 2270.30 53.70 35 o
0 2 6 1456.90 1342.50 48.00 35 o
0 4 6 7035.30 6358.50 68.40 35 o
0 5 6 2773.60 2512.00 49.10 35 o
0 6 6 1074.80 761.60 35.30 35 o
0 7 6 1263.50 1548.60 41.00 35 o
0 8 6 537.64 526.80 32.80 35 o
0 9 6 1161.20 1471.90 38.80 35 o
0 10 6 254.34 401.90 30.30 35 o
0 11 6 478.42 645.70 32.00 35 o
0 12 6 114.24 207.80 27.90 35 o
0 13 6 90.78 112.80 27.00 35 o
0 0 8 5144.10 6175.20 68.00 35 o
0 1 8 2719.20 3765.60 57.40 35 o
0 2 8 295.68 293.10 38.00 35 o
0 3 8 9561.20 11249.30 83.60 35 o
0 5 8 308.78 399.00 34.20 35 o
0 6 8 558.68 995.70 37.20 35 o
0 7 8 919.06 1065.10 37.00 35 o
0 8 8 2294.50 2766.40 47.30 35 o
0 9 8 107.06 154.40 29.70 35 o
0 10 8 384.81 381.80 30.10 35 o
0 11 8 186.34 141.20 28.20 35 o
0 12 8 88.73 83.60 26.60 35 o
0 0 10 1100.00 1344.00 40.80 35 o
0 1 10 336.64 413.30 35.30 35 o
0 2 10 903.31 1520.00 41.40 35 o
0 3 10 353.84 250.40 33.00 35 o
0 4 10 270.02 348.10 33.00 35 o
0 6 10 521.84 575.70 33.70 35 o
0 7 10 205.97 249.90 30.00 35 o
0 8 10 273.68 152.90 29.00 35 o
0 9 10 123.73 138.30 28.40 35 o
0 10 10 224.87 323.90 29.40 35 o
0 11 10 393.24 393.40 30.10 35 o
0 12 10 66.14 40.20 26.50 35 <
0 1 12 2777.40 2426.80 45.80 35 o
0 2 12 550.69 637.40 34.40 35 o
0 3 12 221.51 332.00 31.10 35 o
0 4 12 264.28 437.40 31.80 35 o
0 5 12 183.03 232.20 29.50 35 o
0 6 12 329.86 543.70 31.70 35 o
0 7 12 436.45 449.20 30.90 35 o
0 8 12 26.90 53.60 27.60 35 <
0 9 12 22.39 31.30 27.30 35 <
0 10 12 72.53 61.00 27.10 35 <
0 11 12 39.64 51.70 26.90 35 <
0 1 14 3215.60 2504.80 45.40 35 o
0 2 14 114.95 157.70 29.90 35 o
0 3 14 191.67 217.20 29.80 35 o
0 4 14 148.59 178.80 28.70 35 o
0 5 14 352.10 353.50 30.60 35 o
0 6 14 103.88 137.80 27.20 35 o
0 7 14 336.17 406.00 30.00 35 o
0 8 14 117.83 109.00 27.30 35 o
0 9 14 66.09 65.40 26.30 35 <
0 10 14 41.67 -4.40 26.80 35 <
0 2 16 1475.40 1427.70 38.80 35 o
0 3 16 57.05 67.90 27.50 35 <
0 4 16 105.35 273.60 28.90 35 o
0 5 16 73.77 139.20 28.00 35 o
0 6 16 387.98 354.50 29.80 35 o
0 7 16 59.14 70.60 26.70 35 <
0 3 18 136.37 79.80 27.10 35 <
0 4 18 146.87 148.10 28.00 35 o
0 5 18 45.45 34.60 26.50 35 <
0 6 18 26.58 2.10 26.20 35 <
0 6 -18 46.65 -1.20 27.60 36 <
0 3 -16 326.54 160.50 30.40 36 o
0 4 -16 496.37 379.50 32.40 36 o
0 5 -16 182.68 198.30 30.10 36 o
0 6 -16 325.04 343.70 30.80 36 o
0 7 -16 126.84 120.50 28.70 36 o
0 8 -16 74.47 116.30 28.00 36 o
0 1 -14 1504.20 2522.80 47.70 36 o
0 2 -14 385.89 382.20 32.70 36 o
0 3 -14 377.14 306.40 32.40 36 o
0 4 -14 115.59 188.40 30.90 36 o
0 5 -14 291.93 363.90 32.50 36 o
0 6 -14 93.48 103.60 29.90 36 o
0 7 -14 365.30 327.60 31.30 36 o
0 8 -14 57.38 85.00 28.80 36 <
0 9 -14 60.48 120.80 28.10 36 o
0 10 -14 67.25 32.90 27.60 36 <
0 0 -12 700.63 395.80 32.70 36 o
0 1 -12 3118.00 2483.10 45.80 36 o
0 2 -12 894.67 564.20 35.00 36 o
0 3 -12 555.85 486.10 34.40 36 o
0 4 -12 326.66 276.00 32.80 36 o
0 5 -12 272.66 339.90 32.80 36 o
0 6 -12 309.86 446.00 33.20 36 o
0 7 -12 483.93 529.60 33.00 36 o
0 8 -12 60.10 54.50 29.50 36 <
0 9 -12 46.21 100.90 28.90 36 o
0 10 -12 86.38 99.50 28.60 36 o
0 11 -12 45.80 77.90 28.20 36 <
0 -1 -10 630.29 780.70 37.00 36 o
0 0 -10 1299.90 1448.90 40.90 36 o
0 1 -10 724.12 611.20 35.40 36 o
0 2 -10 708.56 799.70 35.80 36 o
0 3 -10 383.76 466.10 33.80 36 o
0 4 -10 544.46 476.80 34.00 36 o
0 5 -10 230.72 221.60 33.00 36 o
0 6 -10 600.09 563.60 34.50 36 o
0 7 -10 293.37 273.70 31.80 36 o
0 8 -10 319.48 208.00 30.80 36 o
0 9 -10 120.95 109.10 29.90 36 o
0 10 -10 217.06 209.00 30.40 36 o
0 11 -10 317.50 385.10 31.80 36 o
0 12 -10 59.57 87.60 28.50 36 o
0 -2 -8 729.41 955.60 41.90 36 o
0 -1 -8 4745.30 3393.40 55.80 36 o
0 0 -8 3773.60 4912.60 61.70 36 o
0 1 -8 4505.90 2805.70 52.40 36 o
0 2 -8 504.08 671.90 39.30 36 o
0 3 -8 8768.90 8989.30 75.50 36 o
0 4 -8 3082.80 2527.00 46.70 36 o
0 5 -8 511.42 534.80 33.30 36 o
0 6 -8 442.47 434.20 34.00 36 o
0 7 -8 851.12 957.10 37.40 36 o
0 8 -8 2037.90 2367.30 46.10 36 o
0 9 -8 196.04 302.50 32.10 36 o
0 10 -8 461.30 364.60 31.30 36 o
0 11 -8 125.56 149.60 29.70 36 o
0 12 -8 122.09 121.90 28.80 36 o
0 13 -8 87.97 33.80 29.00 36 <
0 -2 -6 2191.70 2090.50 50.40 36 o
0 -1 -6 2615.30 2476.60 53.30 36 o
0 0 -6 13762.00 10990.40 85.40 36 o
0 1 -6 1668.30 1886.00 51.20 36 o
0 2 -6 1247.00 1608.80 46.00 36 o
0 3 -6 2166.50 1605.60 47.00 36 o
0 4 -6 6325.10 5826.90 64.20 36 o
0 5 -6 2145.90 2124.50 45.80 36 o
0 6 -6 837.52 837.10 35.00 36 o
0 7 -6 766.96 1178.20 36.90 36 o
0 8 -6 424.08 304.60 31.80 36 o
0 9 -6 1314.50 1310.30 39.40 36 o
0 10 -6 173.57 178.10 31.30 36 o
0 11 -6 270.11 239.90 31.20 36 o
0 12 -6 116.34 64.10 28.90 36 <
0 13 -6 62.55 73.40 28.10 36 <
0 -1 -4 2400.80 2124.10 63.00 36 o
0 0 -4 20526.00 16835.30 107.20 36 o
0 1 -4 2207.10 1934.60 60.90 36 o
0 2 -4 4403.00 5345.80 71.20 36 o
0 3 -4 3421.30 3242.00 57.00 36 o
0 4 -4 2169.40 1832.00 47.30 36 o
0 5 -4 579.55 778.80 39.00 36 o
0 6 -4 345.30 484.50 33.70 36 o
0 7 -4 586.17 639.60 34.50 36 o
0 8 -4 440.29 572.60 31.90 36 o
0 9 -4 770.42 802.40 34.50 36 o
0 10 -4 1259.00 1373.40 38.00 36 o
0 11 -4 85.65 90.70 28.80 36 o
0 12 -4 136.69 73.80 29.40 36 <
0 13 -4 76.13 59.50 28.50 36 <
0 -2 -2 15112.00 18296.90 113.00 36 o
0 0 -2 25105.00 19945.30 127.40 36 o
0 1 -2 1269.40 2448.70 73.50 36 o
0 2 -2 17619.00 19545.90 115.10 36 o
0 3 -2 4680.00 4830.00 69.80 36 o
0 4 -2 5344.10 5084.90 64.10 36 o
0 5 -2 1305.50 1501.60 45.40 36 o
0 6 -2 428.00 768.30 37.30 36 o
0 7 -2 370.89 604.30 34.30 36 o
0 8 -2 3095.50 2868.00 47.30 36 o
0 9 -2 239.06 333.40 30.70 36 o
0 10 -2 532.00 575.90 31.80 36 o
0 11 -2 79.88 58.30 27.40 36 <
0 12 -2 143.69 109.80 27.50 36 o
0 13 -2 226.33 190.70 28.60 36 o
0 14 -2 114.10 138.60 28.60 36 o
0 -2 0 51390.00 43253.90 160.90 36 o
0 2 0 49771.00 47936.90 169.30 36 o
0 4 0 5620.90 8260.80 76.90 36 o
0 6 0 1171.80 1384.40 42.00 36 o
0 8 0 400.16 420.60 32.20 36 o
0 10 0 615.54 851.30 33.50 36 o
0 12 0 1104.10 1042.40 34.70 36 o
0 14 0 54.06 38.20 26.40 36 <
0 -4 2 8221.30 7135.90 72.60 36 o
0 -3 2 4408.30 5354.10 72.90 36 o
0 -2 2 15980.00 20292.60 116.90 36 o
0 -1 2 1492.80 2519.00 78.10 36 o
0 0 2 25006.00 19931.40 126.10 36 o
0 2 2 20107.00 21665.80 120.40 36 o
0 3 2 4586.90 5067.90 71.70 36 o
0 4 2 6586.30 5103.60 64.50 36 o
0 5 2 1552.50 1482.00 45.20 36 o
0 6 2 323.12 969.70 39.00 36 o
0 7 2 391.18 556.20 34.10 36 o
0 8 2 3124.90 2991.70 47.60 36 o
0 9 2 290.05 326.00 30.30 36 o
0 10 2 599.92 578.80 31.80 36 o
0 11 2 85.08 85.60 27.10 36 o
0 12 2 85.78 58.20 27.00 36 <
0 13 2 227.97 164.30 27.30 36 o
0 14 2 80.65 37.40 25.90 36 <
0 -5 4 2490.00 1361.70 43.00 36 o
0 -4 4 4574.10 3002.30 53.70 36 o
0 -3 4 4164.60 4140.20 62.50 36 o
0 -2 4 5415.40 5810.20 72.30 36 o
0 -1 4 2028.30 1979.40 61.20 36 o
0 0 4 17551.00 17170.80 108.20 36 o
0 1 4 1874.10 1871.20 61.10 36 o
0 3 4 3633.80 3516.70 58.70 36 o
0 4 4 2060.20 2198.90 49.30 36 o
0 5 4 359.71 572.80 38.30 36 o
0 6 4 155.51 386.60 33.80 36 o
0 7 4 462.27 815.60 34.60 36 o
0 8 4 437.66 443.20 32.00 36 o
0 9 4 712.81 853.50 34.60 36 o
0 10 4 1171.70 1270.60 36.70 36 o
0 11 4 61.85 37.40 26.70 36 <
0 12 4 42.49 43.90 26.90 36 <
0 13 4 140.42 7.60 26.30 36 <
0 -5 6 2306.70 2833.50 49.40 36 o
0 -4 6 8190.10 7751.00 72.00 36 o
0 -3 6 1974.70 2287.30 50.70 36 o
0 -2 6 953.09 1736.10 47.90 36 o
0 -1 6 1490.20 2257.20 52.70 36 o
0 0 6 14490.00 10621.10 84.20 36 o
0 1 6 1369.20 2043.40 51.30 36 o
0 2 6 1287.70 1437.50 46.70 36 o
0 4 6 5483.10 6033.70 65.80 36 o
0 5 6 1938.30 2373.70 47.20 36 o
0 6 6 741.40 645.50 33.70 36 o
0 7 6 523.32 1221.90 37.50 36 o
0 8 6 509.97 485.50 31.90 36 o
0 9 6 1578.30 1403.70 38.10 36 o
0 10 6 93.01 146.80 27.60 36 o
0 11 6 147.93 202.30 28.10 36 o
0 12 6 73.59 116.70 27.00 36 o
0 13 6 23.89 69.60 25.90 36 <
0 -5 8 1052.40 584.50 34.90 36 o
0 -4 8 3064.10 3194.50 51.70 36 o
0 -3 8 9017.50 9788.10 79.10 36 o
0 -2 8 485.98 813.50 39.60 36 o
0 -1 8 3313.80 3017.20 53.30 36 o
0 0 8 3306.00 4552.30 60.40 36 o
0 1 8 2472.30 2772.00 51.80 36 o
0 2 8 415.42 590.10 38.80 36 o
0 3 8 8848.60 9629.40 77.90 36 o
0 5 8 284.32 416.40 33.30 36 o
0 6 8 436.01 510.50 32.80 36 o
0 7 8 1216.70 1016.40 36.70 36 o
0 8 8 2140.50 2390.60 44.70 36 o
0 9 8 113.39 140.20 29.00 36 o
0 10 8 378.98 526.00 31.00 36 o
0 11 8 127.80 123.50 27.40 36 o
0 12 8 72.85 86.20 26.60 36 o
0 -5 10 458.90 525.90 32.50 36 o
0 -4 10 692.25 586.40 33.50 36 o
0 -3 10 433.57 512.30 33.80 36 o
0 -2 10 704.23 820.30 36.30 36 o
0 -1 10 608.87 496.20 34.90 36 o
0 0 10 934.24 1351.60 40.20 36 o
0 1 10 485.67 452.00 34.60 36 o
0 2 10 912.58 773.60 35.60 36 o
0 3 10 476.02 448.80 32.40 36 o
0 4 10 333.48 397.40 32.00 36 o
0 5 10 449.37 297.90 30.70 36 o
0 6 10 446.98 532.00 32.40 36 o
0 7 10 159.40 130.40 28.90 36 o
0 8 10 144.22 169.00 28.20 36 o
0 9 10 74.18 61.10 27.50 36 <
0 10 10 301.12 208.20 28.20 36 o
0 11 10 467.23 359.10 29.50 36 o
0 12 10 111.23 20.20 26.50 36 <
0 -5 12 825.94 451.50 31.00 36 o
0 -4 12 299.37 409.40 30.80 36 o
0 -3 12 644.17 494.20 32.70 36 o
0 -2 12 711.63 642.40 33.90 36 o
0 -1 12 2939.70 2343.00 44.80 36 o
0 0 12 181.05 404.40 32.60 36 o
0 1 12 2396.50 2176.50 43.40 36 o
0 2 12 378.83 515.90 32.80 36 o
0 3 12 387.31 315.80 30.80 36 o
0 4 12 264.92 309.30 30.80 36 o
0 5 12 146.71 220.50 29.50 36 o
0 6 12 247.08 367.50 30.30 36 o
0 7 12 356.76 365.30 30.40 36 o
0 8 12 54.53 2.40 27.20 36 <
0 9 12 21.75 39.30 26.40 36 <
0 10 12 67.07 53.50 26.00 36 <
0 11 12 50.90 66.30 26.10 36 <
0 -5 14 275.20 365.70 30.40 36 o
0 -4 14 141.37 188.20 28.70 36 o
0 -3 14 243.12 330.60 30.10 36 o
0 -2 14 229.27 266.80 30.00 36 o
0 -1 14 1933.50 2273.90 44.20 36 o
0 0 14 208.18 214.80 30.30 36 o
0 1 14 1939.00 2563.80 45.00 36 o
0 2 14 116.59 168.80 29.90 36 o
0 3 14 192.79 205.80 28.90 36 o
0 4 14 168.46 150.80 28.00 36 o
0 5 14 324.78 300.60 29.60 36 o
0 6 14 75.42 87.70 27.10 36 o
0 7 14 413.88 297.80 28.70 36 o
0 8 14 30.00 82.50 26.60 36 o
0 9 14 46.30 36.00 26.00 36 <
0 10 14 50.39 -42.90 26.80 36 <
0 -4 16 418.01 342.10 29.40 36 o
0 -3 16 252.40 171.40 27.80 36 o
0 -2 16 1236.80 1189.50 36.50 36 o
0 -1 16 670.89 988.30 34.50 36 o
0 0 16 392.88 675.60 32.50 36 o
0 1 16 784.01 1023.20 35.70 36 o
0 2 16 1135.80 1245.20 36.70 36 o
0 3 16 88.18 89.10 27.60 36 o
0 4 16 254.85 344.80 29.30 36 o
0 5 16 96.57 125.00 27.70 36 o
0 6 16 403.44 312.80 28.80 36 o
0 7 16 108.27 45.20 26.80 36 <
0 -4 18 123.97 128.50 26.70 36 o
0 -3 18 164.84 105.50 27.40 36 o
0 -2 18 70.51 88.70 26.50 36 o
0 -1 18 86.18 75.20 26.50 36 <
0 0 18 72.07 83.40 27.10 36 o
0 1 18 92.22 97.20 27.10 36 o
0 2 18 90.16 103.60 26.60 36 o
0 3 18 101.62 53.70 26.90 36 <
0 4 18 81.03 54.30 27.30 36 <
0 5 18 103.95 26.70 26.20 36 <
0 6 18 32.14 16.50 26.10 36 <
0 -3 20 46.89 33.60 26.00 36 <
0 -2 20 169.62 65.40 26.20 36 <
0 -1 20 98.38 20.70 26.50 36 <
0 0 20 24.29 54.80 26.50 36 <
0 1 20 92.64 61.40 26.20 36 <
0 2 20 121.50 -9.50 26.20 36 <
0 3 20 29.26 105.90 25.80 36 o
0 -10 -2 672.73 759.10 33.80 37 o
0 -9 -2 246.54 363.10 31.50 37 o
0 -8 -2 3692.40 3594.10 51.90 37 o
0 -7 -2 1118.00 1326.00 40.20 37 o
0 -6 -2 970.36 1167.80 40.60 37 o
0 -5 -2 1781.20 1529.80 47.40 37 o
0 -4 -2 9316.70 7601.30 74.90 37 o
0 -3 -2 5411.70 5957.00 75.40 37 o
0 -2 -2 18461.00 21169.20 119.50 37 o
0 2 -2 18692.00 20052.40 117.00 37 o
0 3 -2 5438.80 6139.60 75.70 37 o
0 4 -2 9356.20 8224.50 76.70 37 o
0 5 -2 1785.80 2101.90 50.30 37 o
0 6 -2 988.44 1443.90 42.90 37 o
0 7 -2 1122.00 938.40 37.80 37 o
0 8 -2 3692.00 3633.30 51.60 37 o
0 9 -2 248.52 399.30 30.90 37 o
0 10 -2 665.03 551.60 32.00 37 o
0 -12 0 1107.00 1162.30 36.10 37 o
0 -10 0 413.16 533.50 31.90 37 o
0 -8 0 1312.90 696.40 34.20 37 o
0 -6 0 3070.10 1875.20 45.20 37 o
0 -4 0 12323.00 9345.50 81.30 37 o
0 -2 0 29253.00 37152.90 151.40 37 o
0 2 0 29233.00 37257.90 151.50 37 o
0 4 0 12314.00 10158.90 83.20 37 o
0 6 0 3066.30 2181.20 47.40 37 o
0 8 0 1300.50 933.70 37.10 37 o
0 10 0 410.34 629.90 32.10 37 o
0 12 0 1109.90 806.60 33.30 37 o
0 -14 2 100.16 153.50 27.30 37 o
0 -13 2 158.77 151.30 27.80 37 o
0 -12 2 242.14 246.10 28.10 37 o
0 -11 2 102.56 130.80 28.10 37 o
0 -10 2 354.99 448.80 31.30 37 o
0 -9 2 159.08 325.20 30.70 37 o
0 -8 2 2408.90 2787.10 47.70 37 o
0 -7 2 520.48 888.30 36.80 37 o
0 -6 2 2165.90 1291.70 41.10 37 o
0 -5 2 1604.20 1608.20 46.30 37 o
0 -4 2 8708.90 6126.20 69.00 37 o
0 -3 2 4869.70 5150.50 71.90 37 o
0 -2 2 14788.00 18484.20 113.00 37 o
0 -1 2 2931.40 3317.90 79.60 37 o
0 2 2 14677.00 18482.60 112.50 37 o
0 3 2 4854.10 5438.20 73.50 37 o
0 4 2 8613.10 6875.80 71.20 37 o
0 5 2 1607.70 1654.10 47.00 37 o
0 6 2 2119.40 1226.60 41.40 37 o
0 7 2 518.90 807.60 36.40 37 o
0 8 2 2384.90 3488.20 50.50 37 o
0 9 2 160.46 280.00 31.10 37 o
0 10 2 352.93 610.50 31.80 37 o
0 11 2 101.23 135.50 27.60 37 o
0 12 2 237.01 232.50 28.20 37 o
0 13 2 155.24 74.10 27.10 37 <
0 -13 4 134.57 107.80 26.50 37 o
0 -12 4 148.24 96.50 27.10 37 o
0 -11 4 104.41 108.20 27.60 37 o
0 -10 4 1879.40 1671.10 39.80 37 o
0 -9 4 696.90 990.70 36.40 37 o
0 -8 4 791.39 879.40 35.70 37 o
0 -7 4 666.42 657.70 34.90 37 o
0 -6 4 1012.10 767.50 37.10 37 o
0 -5 4 1424.60 1307.90 42.60 37 o
0 -4 4 3070.30 1893.90 47.80 37 o
0 -3 4 3674.80 3438.80 58.90 37 o
0 -2 4 5660.30 5305.00 71.20 37 o
0 -1 4 3300.40 3047.10 65.00 37 o
0 1 4 3295.10 3422.40 66.50 37 o
0 3 4 3646.70 3257.20 58.10 37 o
0 4 4 3030.10 2102.70 49.50 37 o
0 5 4 1421.80 1178.50 42.60 37 o
0 6 4 983.58 742.30 37.40 37 o
0 7 4 665.91 838.50 35.70 37 o
0 8 4 787.56 777.70 35.20 37 o
0 9 4 701.39 1055.20 36.50 37 o
0 10 4 1882.20 1791.80 40.30 37 o
0 11 4 109.74 90.90 27.90 37 o
0 12 4 151.43 171.10 27.50 37 o
0 13 4 129.88 56.40 26.20 37 <
0 -13 6 104.79 91.20 26.50 37 o
0 -12 6 98.88 103.00 26.90 37 o
0 -11 6 324.32 411.50 30.00 37 o
0 -10 6 177.58 224.10 28.80 37 o
0 -9 6 1132.00 1150.40 36.50 37 o
0 -8 6 434.51 398.90 31.50 37 o
0 -7 6 1119.70 1235.70 37.60 37 o
0 -6 6 495.45 618.80 35.10 37 o
0 -5 6 1881.80 2280.60 47.00 37 o
0 -4 6 5697.30 5600.60 63.70 37 o
0 -3 6 1911.70 1831.10 48.20 37 o
0 -2 6 1190.50 1600.50 47.90 37 o
0 -1 6 1543.20 1548.50 48.90 37 o
0 0 6 12253.00 11770.70 88.50 37 o
0 1 6 1518.10 1745.00 50.00 37 o
0 2 6 1179.80 1547.80 47.70 37 o
0 4 6 5688.90 5858.70 64.90 37 o
0 5 6 1870.10 2330.10 46.60 37 o
0 6 6 489.98 809.20 35.50 37 o
0 7 6 1119.20 1333.90 38.90 37 o
0 8 6 438.63 437.00 31.80 37 o
0 9 6 1121.30 1324.90 37.60 37 o
0 10 6 179.18 248.00 29.60 37 o
0 11 6 320.67 561.40 31.40 37 o
0 12 6 92.11 103.90 27.20 37 o
0 13 6 105.06 60.50 26.50 37 <
0 -13 8 123.41 65.40 26.70 37 <
0 -12 8 77.50 43.10 27.30 37 <
0 -11 8 284.77 140.60 27.40 37 o
0 -10 8 347.02 359.90 29.80 37 o
0 -9 8 190.67 187.30 28.90 37 o
0 -8 8 2190.00 2443.90 44.60 37 o
0 -7 8 591.03 771.50 34.40 37 o
0 -6 8 493.48 478.10 32.50 37 o
0 -5 8 626.31 522.20 34.80 37 o
0 -4 8 2768.10 2436.60 47.40 37 o
0 -3 8 8699.00 9500.30 77.20 37 o
0 -2 8 357.63 403.80 37.80 37 o
0 -1 8 2361.30 2400.70 49.70 37 o
0 0 8 3334.40 4442.10 60.00 37 o
0 1 8 2342.30 2306.50 49.10 37 o
0 2 8 351.74 503.50 38.20 37 o
0 3 8 8626.90 9337.90 77.50 37 o
0 5 8 606.60 550.80 33.50 37 o
0 6 8 482.05 587.90 34.10 37 o
0 7 8 581.06 842.20 35.20 37 o
0 8 8 2189.90 2532.10 45.10 37 o
0 9 8 189.98 209.80 29.20 37 o
0 10 8 355.16 383.20 29.10 37 o
0 11 8 281.82 228.50 27.70 37 o
0 12 8 86.31 77.20 26.70 37 <
0 -12 10 66.80 41.20 26.10 37 <
0 -11 10 285.60 361.30 29.00 37 o
0 -10 10 256.95 208.60 28.10 37 o
0 -9 10 155.87 104.40 27.60 37 o
0 -8 10 226.36 119.50 28.00 37 o
0 -7 10 280.23 210.20 28.90 37 o
0 -6 10 492.55 484.90 31.90 37 o
0 -5 10 271.99 293.60 30.80 37 o
0 -4 10 410.84 377.00 32.00 37 o
0 -3 10 503.40 499.60 34.10 37 o
0 -2 10 839.76 858.60 36.20 37 o
0 -1 10 330.70 327.00 33.00 37 o
0 0 10 848.09 1097.10 39.10 37 o
0 1 10 330.70 265.80 32.80 37 o
0 2 10 849.55 1119.20 37.70 37 o
0 3 10 500.45 546.00 33.30 37 o
0 4 10 412.13 353.40 32.50 37 o
0 5 10 259.31 408.10 31.70 37 o
0 6 10 486.68 510.90 32.20 37 o
0 7 10 284.92 299.90 29.80 37 o
0 8 10 215.36 112.30 28.20 37 o
0 9 10 155.30 98.40 27.30 37 o
0 10 10 250.89 183.50 27.90 37 o
0 11 10 280.11 412.00 29.70 37 o
0 12 10 67.93 39.80 26.30 37 <
0 -11 12 33.61 23.70 26.20 37 <
0 -10 12 68.31 39.90 26.30 37 <
0 -9 12 50.27 55.20 26.30 37 <
0 -8 12 34.04 61.20 26.50 37 <
0 -7 12 408.12 332.70 30.00 37 o
0 -6 12 302.09 427.30 30.50 37 o
0 -5 12 191.34 122.10 28.20 37 o
0 -4 12 287.03 350.90 30.50 37 o
0 -3 12 492.28 298.80 31.00 37 o
0 -2 12 595.82 629.20 33.40 37 o
0 -1 12 2566.80 1935.10 42.40 37 o
0 0 12 449.42 306.20 31.90 37 o
0 1 12 2571.70 2079.70 43.20 37 o
0 2 12 591.37 858.40 34.50 37 o
0 3 12 487.79 699.80 33.90 37 o
0 4 12 280.98 428.50 31.50 37 o
0 5 12 192.52 194.90 29.00 37 o
0 6 12 302.85 277.20 30.00 37 o
0 7 12 400.17 391.60 30.30 37 o
0 8 12 33.87 2.40 27.20 37 <
0 9 12 48.22 113.40 26.70 37 o
0 10 12 66.34 35.90 26.60 37 <
0 11 12 37.99 63.70 26.10 37 <
0 -10 14 55.88 -3.50 26.00 37 <
0 -9 14 77.28 58.90 26.20 37 <
0 -8 14 68.92 62.70 26.10 37 <
0 -7 14 233.47 329.00 28.10 37 o
0 -6 14 104.50 70.10 27.40 37 <
0 -5 14 304.28 256.80 28.60 37 o
0 -4 14 142.36 120.10 28.00 37 o
0 -3 14 247.05 264.40 29.40 37 o
0 -2 14 93.37 132.90 28.40 37 o
0 -1 14 1578.20 2194.50 43.20 37 o
0 0 14 243.46 252.00 30.30 37 o
0 1 14 1607.10 2214.20 43.50 37 o
0 2 14 91.70 125.30 29.00 37 o
0 3 14 239.33 473.90 31.60 37 o
0 4 14 147.57 194.20 28.70 37 o
0 5 14 302.06 260.30 29.30 37 o
0 6 14 101.79 37.30 26.90 37 <
0 8 14 61.35 75.90 26.90 37 <
0 9 14 68.95 46.50 26.30 37 <
0 10 14 58.92 -21.10 27.00 37 <
0 -8 16 43.27 -56.70 26.20 37 <
0 -7 16 75.38 105.20 26.40 37 o
0 -6 16 372.73 320.30 28.20 37 o
0 -5 16 59.83 83.50 27.00 37 o
0 -4 16 140.24 232.60 28.00 37 o
0 -3 16 73.66 153.50 27.70 37 o
0 -2 16 989.13 915.40 34.20 37 o
0 -1 16 631.31 883.40 34.10 37 o
0 0 16 468.82 525.30 30.90 37 o
0 1 16 632.48 856.10 33.90 37 o
0 2 16 983.78 1043.90 35.40 37 o
0 3 16 77.65 111.40 27.40 37 o
0 4 16 138.40 237.30 27.80 37 o
0 5 16 65.95 77.60 27.40 37 <
0 6 16 364.31 277.80 28.00 37 o
0 7 16 72.18 50.10 26.60 37 <
0 -6 18 28.89 19.90 25.90 37 <
0 -5 18 57.05 65.10 26.10 37 <
0 -4 18 64.30 121.50 26.20 37 o
0 -3 18 185.95 214.70 27.70 37 o
0 -2 18 60.57 16.40 26.40 37 <
0 -1 18 49.14 49.80 26.30 37 <
0 0 18 50.37 24.50 26.70 37 <
0 1 18 49.80 35.30 26.50 37 <
0 2 18 62.58 85.90 26.10 37 o
0 3 18 185.56 82.30 26.90 37 o
0 4 18 63.75 63.20 26.80 37 <
0 5 18 56.46 1.10 26.30 37 <
0 6 18 28.36 81.70 25.80 37 o
0 -3 20 44.00 37.60 25.80 37 <
0 -2 20 67.21 54.80 26.60 37 <
0 -1 20 97.60 25.60 25.90 37 <
0 0 20 39.01 63.50 26.50 37 <
0 1 20 93.30 64.20 26.30 37 <
0 2 20 70.94 48.20 26.40 37 <
0 3 20 46.52 0.90 25.80 37 <
0 -12 -10 165.53 147.00 27.70 38 o
0 -11 -10 554.61 861.80 34.20 38 o
0 -10 -10 482.03 725.20 32.80 38 o
0 -9 -10 193.38 269.40 29.20 38 o
0 -12 -8 46.78 48.90 26.30 38 <
0 -11 -8 286.92 251.20 28.70 38 o
0 -10 -8 500.17 659.80 33.20 38 o
0 -9 -8 74.06 190.80 30.00 38 o
0 -8 -8 3709.50 4466.00 55.90 38 o
0 -7 -8 1662.50 2140.10 44.40 38 o
0 -6 -8 941.36 1216.50 38.00 38 o
0 -13 -6 91.53 113.70 26.90 38 o
0 -12 -6 93.35 70.10 27.30 38 <
0 -11 -6 179.56 152.10 28.70 38 o
0 -10 -6 142.52 158.70 29.30 38 o
0 -9 -6 1348.40 1555.00 39.00 38 o
0 -8 -6 468.14 355.50 31.70 38 o
0 -7 -6 1066.70 1415.00 40.30 38 o
0 -6 -6 528.03 658.30 36.20 38 o
0 -5 -6 3350.30 3929.60 56.20 38 o
0 -4 -6 10200.00 12185.70 87.70 38 o
0 -13 -4 66.26 90.60 26.90 38 o
0 -12 -4 199.43 278.60 28.70 38 o
0 -11 -4 113.49 188.10 28.70 38 o
0 -10 -4 1692.80 1557.50 39.40 38 o
0 -9 -4 1038.30 1112.30 37.60 38 o
0 -8 -4 337.67 359.40 32.60 38 o
0 -7 -4 439.12 626.20 34.90 38 o
0 -6 -4 302.05 312.30 34.10 38 o
0 -5 -4 313.34 576.10 39.20 38 o
0 -4 -4 2035.40 2588.20 53.40 38 o
0 -3 -4 3715.10 4169.20 63.00 38 o
0 -14 -2 102.86 80.50 27.40 38 <
0 -13 -2 157.29 135.40 27.60 38 o
0 -12 -2 187.37 216.70 28.60 38 o
0 -11 -2 56.88 41.80 27.60 38 <
0 -10 -2 594.25 589.30 32.30 38 o
0 -9 -2 290.44 397.80 32.10 38 o
0 -8 -2 2793.90 2719.70 46.80 38 o
0 -7 -2 381.20 350.50 33.80 38 o
0 -6 -2 944.89 1388.30 42.10 38 o
0 -5 -2 1695.70 1710.90 47.90 38 o
0 -4 -2 8262.60 5968.20 70.00 38 o
0 -3 -2 5696.20 5289.10 74.90 38 o
0 -2 -2 23606.00 24022.70 127.30 38 o
0 -14 0 90.85 81.10 26.70 38 o
0 -12 0 829.01 813.80 33.80 38 o
0 -10 0 665.28 532.70 32.30 38 o
0 -8 0 492.49 389.40 32.10 38 o
0 -6 0 1512.70 1078.30 41.00 38 o
0 -14 2 114.51 92.30 26.80 38 o
0 -13 2 173.86 52.20 27.70 38 <
0 -12 2 215.75 200.50 28.70 38 o
0 -11 2 73.06 129.10 27.30 38 o
0 -10 2 826.41 667.90 32.90 38 o
0 -9 2 396.75 463.50 31.80 38 o
0 2 2 24262.00 21895.10 121.80 38 o
0 3 2 7377.80 5848.50 75.70 38 o
0 -13 4 119.88 108.50 26.70 38 o
0 -12 4 297.75 202.80 28.00 38 o
0 -11 4 142.93 244.30 29.20 38 o
0 3 4 3094.10 2620.20 56.60 38 o
0 4 4 2031.00 1886.60 50.10 38 o
0 5 4 424.01 533.90 38.80 38 o
0 6 4 568.18 200.40 34.70 38 o
0 -13 6 137.58 91.40 27.10 38 o
0 -12 6 116.46 139.60 27.10 38 o
0 2 6 1291.70 1738.20 50.40 38 o
0 4 6 6947.90 5869.70 66.10 38 o
0 5 6 2886.40 2272.00 46.70 38 o
0 6 6 446.41 862.00 36.60 38 o
0 7 6 1400.70 1324.80 39.70 38 o
0 -13 8 161.31 40.60 26.20 38 <
0 -12 8 126.19 118.50 26.70 38 o
0 2 8 285.75 539.10 39.60 38 o
0 3 8 11839.00 11606.90 84.80 38 o
0 5 8 169.32 529.50 34.50 38 o
0 6 8 631.10 1073.70 38.00 38 o
0 7 8 1455.20 1077.70 37.70 38 o
0 8 8 4025.20 3251.50 49.30 38 o
0 2 10 977.38 1171.30 39.20 38 o
0 3 10 448.11 592.10 35.20 38 o
0 4 10 350.99 387.90 33.30 38 o
0 5 10 339.17 264.40 31.00 38 o
0 6 10 599.32 588.70 33.70 38 o
0 7 10 164.32 172.00 29.70 38 o
0 8 10 105.55 90.80 28.80 38 o
0 9 10 140.00 142.80 28.10 38 o
0 2 12 763.50 718.40 35.00 38 o
0 3 12 250.99 444.60 32.30 38 o
0 4 12 277.10 305.60 31.10 38 o
0 5 12 161.38 243.30 30.10 38 o
0 6 12 313.45 448.40 31.40 38 o
0 7 12 457.03 371.70 31.40 38 o
0 8 12 37.36 18.30 27.90 38 <
0 9 12 37.51 81.00 26.80 38 o
0 10 12 121.42 -7.00 26.70 38 <
0 1 14 3608.20 3412.40 51.20 38 o
0 2 14 131.44 303.90 31.00 38 o
0 3 14 173.17 251.30 29.90 38 o
0 4 14 168.92 118.10 28.50 38 o
0 5 14 356.36 304.50 30.00 38 o
0 6 14 98.95 117.70 27.40 38 o
0 8 14 73.38 117.00 27.60 38 o
0 9 14 32.33 53.80 26.40 38 <
0 10 14 24.93 -60.70 26.80 38 <
0 1 16 1490.50 1368.10 38.00 38 o
0 2 16 1160.30 1477.40 38.80 38 o
0 3 16 52.90 129.30 28.20 38 o
0 4 16 79.86 319.20 29.10 38 o
0 5 16 80.25 86.10 27.80 38 o
0 6 16 390.94 253.90 28.90 38 o
0 7 16 57.06 60.90 26.90 38 <
0 0 18 150.36 70.40 27.70 38 <
0 1 18 200.67 124.30 27.40 38 o
0 2 18 193.91 83.30 26.60 38 o
0 3 18 30.80 24.70 27.00 38 <
0 4 18 121.06 65.00 27.70 38 <
0 5 18 33.49 17.10 26.60 38 <
0 6 18 33.96 35.90 26.00 38 <
0 -2 20 140.69 105.70 26.70 38 o
0 -1 20 110.66 -2.20 26.40 38 <
0 0 20 84.17 17.40 26.20 38 <
0 1 20 58.06 45.90 26.00 38 <
0 2 20 69.06 49.40 26.10 38 <
0 3 20 50.31 16.90 26.60 38 <
0 -11 -12 54.67 42.50 27.10 39 <
0 -10 -12 96.65 141.70 27.60 39 o
0 -12 -10 73.48 83.70 27.20 39 o
0 -11 -10 513.61 345.10 30.80 39 o
0 -10 -10 416.46 423.90 30.10 39 o
0 -9 -10 165.44 81.90 27.70 39 <
0 -8 -10 73.25 128.70 28.60 39 o
0 -12 -8 21.87 83.70 27.10 39 o
0 -11 -8 285.44 317.50 29.30 39 o
0 -10 -8 600.53 473.10 31.80 39 o
0 -9 -8 82.81 137.90 29.60 39 o
0 -8 -8 4477.20 4799.60 57.90 39 o
0 -7 -8 1167.50 1181.10 38.50 39 o
0 -6 -8 1402.90 1539.60 40.60 39 o
0 -13 -6 99.22 -5.30 27.00 39 <
0 -12 -6 114.18 82.10 27.80 39 <
0 -11 -6 349.10 371.00 30.30 39 o
0 -10 -6 259.29 252.70 29.80 39 o
0 -9 -6 1089.10 1153.30 37.70 39 o
0 -8 -6 394.64 403.60 32.90 39 o
0 -7 -6 1904.50 2136.50 44.50 39 o
0 -6 -6 197.08 116.50 32.80 39 o
0 -5 -6 4407.70 4805.80 60.40 39 o
0 -4 -6 11918.00 12200.50 89.30 39 o
0 -13 -4 64.70 59.80 26.60 39 <
0 -12 -4 357.16 267.20 29.10 39 o
0 -11 -4 195.45 100.80 28.40 39 o
0 -10 -4 3208.00 2729.20 46.90 39 o
0 -9 -4 1675.80 1512.20 40.40 39 o
0 -8 -4 500.38 598.60 34.70 39 o
0 -7 -4 896.04 964.70 37.70 39 o
0 -6 -4 454.34 559.40 36.70 39 o
0 -5 -4 256.91 786.80 40.90 39 o
0 -4 -4 2117.10 2259.20 53.00 39 o
0 -3 -4 3977.10 4206.90 65.30 39 o
0 -3 -2 9368.70 9346.50 89.40 39 o
0 -2 -2 29248.00 30455.30 140.80 39 o
0 2 2 31648.00 32043.20 144.80 39 o
0 3 4 3833.60 3602.90 63.30 39 o
0 4 4 2809.20 2513.80 54.20 39 o
0 4 6 9084.50 8454.60 77.50 39 o
0 5 6 4604.20 4697.50 60.20 39 o
0 6 6 281.62 167.80 31.60 39 o
0 3 8 20493.00 19900.50 109.70 39 o
0 5 8 185.07 363.00 34.50 39 o
0 6 8 1200.70 886.30 36.70 39 o
0 7 8 1328.20 1144.80 38.30 39 o
0 4 10 453.48 376.80 32.80 39 o
0 5 10 126.24 176.70 30.80 39 o
0 6 10 739.91 1033.50 36.60 39 o
0 7 10 167.50 99.20 29.60 39 o
0 8 10 68.98 58.50 28.70 39 <
0 4 12 164.68 262.10 30.90 39 o
0 5 12 299.44 403.30 31.40 39 o
0 6 12 465.86 511.10 31.90 39 o
0 7 12 589.06 448.60 31.50 39 o
0 8 12 27.68 82.80 27.20 39 o
0 9 12 62.73 70.60 26.40 39 <
0 4 14 162.60 129.60 28.30 39 o
0 5 14 499.21 495.00 30.50 39 o
0 6 14 103.24 86.00 27.70 39 o
0 8 14 186.16 93.20 27.50 39 o
0 9 14 29.97 13.70 26.10 39 <
0 10 14 50.90 63.20 26.30 39 <
0 4 16 390.70 437.20 30.10 39 o
0 5 16 83.69 149.10 27.90 39 o
0 6 16 561.58 369.40 29.60 39 o
0 7 16 73.32 94.40 26.60 39 o
0 4 18 174.93 191.40 28.20 39 o
0 5 18 68.83 64.90 26.80 39 <
0 6 18 23.18 35.80 26.30 39 <
1 3 -20 41.09 -2.80 27.80 40 <
1 4 -19 0.20 -6.70 27.60 40 <
1 5 -19 0.13 -36.90 27.50 40 <
1 5 -18 18.77 -3.80 27.20 40 <
1 6 -18 40.90 24.20 27.50 40 <
1 6 -17 0.32 -37.10 28.20 40 <
1 7 -17 0.38 4.10 27.60 40 <
1 7 -16 173.86 107.70 29.50 40 o
1 8 -16 258.83 268.80 29.60 40 o
1 8 -15 0.99 -22.80 27.60 40 <
1 9 -15 1.90 0.50 27.80 40 <
1 8 -14 308.53 283.10 30.50 40 o
1 9 -14 24.61 28.70 27.60 40 <
1 10 -14 29.96 26.50 27.50 40 <
1 9 -13 9.77 -42.00 28.30 40 <
1 10 -13 0.28 4.80 27.40 40 <
0 -11 -12 41.46 52.50 27.20 40 <
0 -10 -12 8.64 4.90 26.40 40 <
0 -9 -12 65.05 9.90 27.80 40 <
0 -8 -12 32.26 72.10 27.50 40 <
1 10 -12 30.69 36.50 28.00 40 <
1 11 -12 2.33 -36.00 27.90 40 <
1 10 -11 68.85 68.80 29.00 40 <
1 11 -11 58.69 63.00 27.80 40 <
0 -12 -10 57.22 38.40 27.30 40 <
0 -11 -10 413.17 489.80 31.20 40 o
0 -10 -10 394.65 304.20 30.10 40 o
0 -9 -10 123.00 87.00 27.60 40 o
0 -8 -10 56.76 138.80 28.90 40 o
0 -7 -10 228.41 293.90 29.70 40 o
1 11 -10 94.59 82.60 29.20 40 <
1 12 -10 202.43 134.80 29.00 40 o
1 12 -9 30.71 40.80 28.10 40 <
0 -12 -8 19.16 48.40 26.60 40 <
0 -11 -8 283.16 255.00 28.80 40 o
0 -10 -8 665.62 501.70 32.30 40 o
0 -9 -8 28.58 23.90 29.10 40 <
0 -8 -8 4223.40 4444.00 56.20 40 o
0 -7 -8 1211.30 1270.40 39.30 40 o
0 -6 -8 1204.80 1594.40 41.00 40 o
0 -5 -8 112.92 218.90 32.40 40 o
1 12 -8 5.39 60.80 28.00 40 <
1 13 -7 0.72 -4.70 27.70 40 <
0 -8 -6 539.44 327.50 31.90 40 o
0 -7 -6 2250.60 2142.20 44.70 40 o
0 -6 -6 165.46 126.60 31.90 40 o
0 -5 -6 4344.30 4347.10 59.30 40 o
0 -4 -6 11326.00 11469.70 87.00 40 o
1 13 -6 168.39 143.40 29.20 40 o
0 -4 -4 2713.60 2904.90 56.10 40 o
0 -3 -4 3853.90 3756.40 63.80 40 o
0 -2 -2 37403.00 35065.90 149.80 40 o
0 3 4 4178.30 3920.40 64.70 40 o
0 4 6 10840.00 9992.00 82.70 40 o
0 5 8 102.63 213.10 33.40 40 o
0 6 8 1650.60 1748.90 42.20 40 o
0 4 10 491.50 499.60 35.10 40 o
0 5 10 96.11 90.30 30.10 40 o
0 6 10 512.06 653.00 34.20 40 o
0 7 10 243.46 113.80 29.90 40 o
0 5 12 306.77 525.80 33.10 40 o
0 6 12 510.37 674.70 33.30 40 o
0 7 12 469.93 439.10 31.80 40 o
0 8 12 31.29 26.40 27.30 40 <
0 5 14 504.50 529.40 31.40 40 o
0 6 14 85.68 16.70 28.00 40 <
0 8 14 115.93 158.50 27.90 40 o
0 9 14 29.49 48.40 26.50 40 <
0 5 16 142.34 165.10 28.50 40 o
0 6 16 551.96 445.50 30.70 40 o
0 7 16 131.26 110.20 27.10 40 o
0 6 18 18.51 9.30 26.10 40 <
1 1 -20 189.58 122.70 29.20 41 o
1 2 -20 120.39 38.70 29.00 41 <
1 3 -20 32.79 -1.90 27.70 41 <
1 1 -19 24.16 23.90 28.10 41 <
1 2 -19 23.98 64.30 28.00 41 <
1 3 -19 1.05 -0.50 27.90 41 <
1 4 -19 0.22 -28.80 28.20 41 <
1 5 -19 0.35 -43.70 27.40 41 <
1 2 -18 128.37 131.60 30.50 41 o
1 3 -18 8.03 -4.70 28.30 41 <
1 4 -18 103.82 2.10 28.70 41 <
1 5 -18 16.78 31.20 27.70 41 <
1 6 -18 38.53 75.10 27.20 41 <
1 3 -17 25.62 -6.10 28.60 41 <
1 4 -17 6.81 -4.50 28.80 41 <
1 5 -17 0.95 45.00 28.00 41 <
1 6 -17 1.19 -58.50 28.50 41 <
1 7 -17 2.28 16.40 27.60 41 <
1 4 -16 107.40 153.50 29.40 41 o
1 5 -16 127.10 68.50 29.50 41 <
1 6 -16 35.17 73.70 28.00 41 <
1 7 -16 171.11 56.40 29.20 41 <
1 8 -16 365.53 294.60 30.20 41 o
1 5 -15 1.07 -65.40 29.40 41 <
1 6 -15 3.68 -1.50 29.40 41 <
1 7 -15 2.99 -17.20 28.90 41 <
1 8 -15 1.44 -1.70 28.00 41 <
0 -10 -14 28.57 17.30 26.40 41 <
1 6 -14 16.15 32.50 29.40 41 <
1 7 -14 14.67 62.70 29.10 41 <
1 8 -14 209.55 183.20 29.80 41 o
1 9 -14 9.49 27.80 27.90 41 <
1 7 -13 0.58 -46.10 29.00 41 <
1 8 -13 2.20 55.90 28.60 41 <
1 9 -13 9.25 10.90 28.50 41 <
1 10 -13 2.75 0.70 27.80 41 <
0 -11 -12 21.90 -7.10 26.40 41 <
0 -10 -12 6.81 -5.10 26.20 41 <
0 -9 -12 94.15 40.90 27.50 41 <
0 -8 -12 20.99 -40.50 27.30 41 <
1 7 -12 685.17 680.70 34.60 41 o
1 8 -12 36.61 27.50 29.10 41 <
1 9 -12 119.94 66.20 29.30 41 <
1 10 -12 39.10 -22.30 28.70 41 <
1 8 -11 23.57 59.90 29.60 41 <
1 9 -11 1.60 -11.20 29.20 41 <
1 10 -11 35.81 74.10 28.80 41 <
1 11 -11 70.64 11.30 28.50 41 <
0 -12 -10 25.09 76.60 26.50 41 <
0 -11 -10 550.78 467.70 31.10 41 o
0 -10 -10 377.49 295.90 29.80 41 o
0 -9 -10 95.31 45.90 27.50 41 <
0 -8 -10 39.35 72.80 28.30 41 <
0 -7 -10 201.88 180.90 29.40 41 o
0 -6 -10 355.98 335.40 32.00 41 o
1 9 -10 526.04 517.10 33.60 41 o
1 10 -10 473.80 331.20 31.50 41 o
1 11 -10 80.14 84.70 28.20 41 o
1 9 -9 18.03 63.60 31.40 41 <
1 10 -9 72.02 59.70 30.60 41 <
1 11 -9 38.22 -28.90 28.80 41 <
1 12 -9 31.06 16.80 28.40 41 <
0 -9 -8 57.31 77.80 28.80 41 <
0 -8 -8 4816.60 5190.70 59.80 41 o
0 -7 -8 1212.90 1401.20 39.50 41 o
0 -6 -8 1006.00 830.70 35.70 41 o
0 -5 -8 61.06 126.90 31.00 41 o
1 10 -8 1186.90 1365.10 39.50 41 o
1 11 -8 10.08 68.10 28.50 41 <
1 12 -8 5.70 39.10 28.20 41 <
1 10 -7 11.90 25.00 30.20 41 <
1 11 -7 17.50 11.10 28.80 41 <
1 12 -7 4.11 -22.30 28.20 41 <
1 13 -7 3.05 37.40 27.90 41 <
0 -6 -6 180.85 143.90 31.10 41 o
0 -5 -6 4872.20 5032.70 61.80 41 o
0 -4 -6 11273.00 11728.80 87.80 41 o
1 11 -6 624.49 567.10 34.00 41 o
1 12 -6 117.18 151.90 29.60 41 o
1 13 -6 141.47 59.90 29.20 41 <
1 11 -5 0.51 56.90 29.30 41 <
1 12 -5 54.99 49.10 29.00 41 <
1 13 -5 2.63 10.70 27.80 41 <
0 -4 -4 4176.30 3971.90 60.10 41 o
0 -3 -4 4073.20 3871.90 63.80 41 o
1 12 -4 663.55 716.70 34.60 41 o
1 13 -4 24.70 19.80 28.00 41 <
1 12 -3 73.01 88.70 28.50 41 o
1 13 -3 30.61 21.30 28.00 41 <
1 13 -2 101.59 72.90 28.60 41 <
1 13 -1 7.21 10.10 26.70 41 <
1 14 -1 4.67 1.50 27.20 41 <
1 14 0 94.51 62.20 26.70 41 <
0 3 4 5252.00 4535.70 65.40 41 o
0 4 6 11881.00 11600.00 88.00 41 o
0 4 8 4155.80 4235.00 61.30 41 o
0 5 8 54.29 98.50 32.40 41 o
0 4 10 631.67 789.60 37.10 41 o
0 5 10 58.56 47.50 29.90 41 <
0 6 10 273.49 370.10 32.70 41 o
0 5 12 252.89 483.60 32.20 41 o
0 6 12 576.56 753.30 33.80 41 o
0 7 12 369.65 374.90 31.00 41 o
0 8 12 22.77 11.70 27.00 41 <
-1 -10 14 42.44 54.10 25.60 41 <
0 5 14 654.30 696.30 32.20 41 o
0 6 14 138.69 135.60 27.70 41 o
0 8 14 92.19 79.10 27.20 41 <
0 6 16 670.18 526.90 31.60 41 o
0 7 16 129.68 157.90 27.60 41 o
0 6 18 12.97 1.10 26.00 41 <
1 -2 -20 178.66 214.40 29.20 42 o
1 -1 -20 134.64 88.30 28.70 42 o
1 1 -20 86.00 63.00 28.60 42 <
1 2 -20 160.37 123.50 28.80 42 o
1 -1 -19 36.55 13.10 28.60 42 <
1 1 -19 20.07 64.40 28.10 42 <
1 2 -19 17.52 -33.00 28.20 42 <
1 3 -19 0.56 -74.10 28.00 42 <
1 1 -18 15.49 18.70 28.70 42 <
1 2 -18 109.64 155.50 29.90 42 o
1 3 -18 26.64 46.70 28.00 42 <
1 1 -17 80.07 48.00 29.00 42 <
1 2 -17 25.84 -44.20 28.70 42 <
1 3 -17 14.36 20.10 28.40 42 <
1 4 -17 4.57 43.00 28.40 42 <
1 2 -16 204.25 125.60 30.70 42 o
1 3 -16 384.05 380.40 31.50 42 o
1 4 -16 136.97 183.90 29.90 42 o
1 5 -16 286.48 363.60 31.10 42 o
1 3 -15 188.72 210.30 31.20 42 o
1 4 -15 5.82 0.60 29.00 42 <
1 5 -15 1.06 3.30 28.40 42 <
0 -10 -14 22.11 -10.60 26.20 42 <
0 -9 -14 14.96 21.20 25.90 42 <
1 4 -14 342.07 450.00 32.80 42 o
1 5 -14 1695.20 1568.50 41.50 42 o
1 6 -14 25.00 70.70 29.10 42 <
1 5 -13 35.92 55.50 29.50 42 <
1 6 -13 10.32 68.50 29.00 42 <
1 7 -13 0.81 78.30 28.30 42 <
0 -11 -12 25.07 -8.20 26.20 42 <
0 -10 -12 2.91 23.90 26.30 42 <
0 -9 -12 105.94 45.30 27.50 42 <
0 -8 -12 8.78 6.20 26.70 42 <
1 5 -12 294.80 263.90 31.50 42 o
1 6 -12 381.14 337.90 32.70 42 o
1 7 -12 439.68 528.30 33.50 42 o
1 6 -11 5.09 -65.10 30.50 42 <
1 7 -11 12.91 8.90 29.80 42 <
1 8 -11 20.58 15.60 29.00 42 <
0 -10 -10 462.36 373.90 29.80 42 o
0 -9 -10 97.04 34.20 27.40 42 <
0 -8 -10 57.69 93.30 27.80 42 o
0 -7 -10 177.21 174.50 29.10 42 o
0 -6 -10 181.41 203.70 29.80 42 o
1 7 -10 466.52 488.80 33.80 42 o
1 8 -10 650.03 676.80 36.00 42 o
1 9 -10 553.68 638.40 34.30 42 o
1 7 -9 552.24 551.00 34.90 42 o
1 8 -9 66.38 39.10 30.60 42 <
1 9 -9 12.49 4.20 30.80 42 <
0 -7 -8 1450.00 1695.30 41.30 42 o
0 -6 -8 867.61 720.10 34.20 42 o
0 -5 -8 34.55 27.70 30.00 42 <
1 8 -8 1036.60 1109.20 38.70 42 o
1 9 -8 2136.40 2174.60 46.30 42 o
1 10 -8 1466.60 1662.80 41.60 42 o
1 8 -7 112.44 153.30 31.30 42 o
1 9 -7 69.13 129.50 31.40 42 o
1 10 -7 9.94 83.40 29.70 42 <
0 -5 -6 4691.00 4378.70 58.10 42 o
0 -4 -6 10389.00 10270.90 82.60 42 o
1 9 -6 1264.00 1408.70 40.00 42 o
1 10 -6 82.59 159.70 30.00 42 o
1 11 -6 534.04 593.70 33.90 42 o
1 10 -5 8.44 39.20 29.40 42 <
1 11 -5 0.59 15.60 28.50 42 <
1 12 -5 65.81 -23.50 29.00 42 <
0 -3 -4 3969.30 3815.00 62.60 42 o
1 10 -4 1017.80 991.40 36.40 42 o
1 11 -4 196.87 224.20 30.70 42 o
1 12 -4 882.30 771.30 35.00 42 o
1 11 -3 20.17 15.10 27.30 42 <
1 12 -3 53.55 74.50 28.60 42 <
1 13 -3 22.28 11.20 27.90 42 <
1 11 -2 13.81 17.80 26.80 42 <
1 12 -2 232.96 217.10 28.30 42 o
1 13 -2 26.01 32.20 27.50 42 <
1 11 -1 4.39 -76.60 26.20 42 <
1 12 -1 2.78 -104.40 26.80 42 <
1 13 -1 1.41 -27.50 26.40 42 <
1 14 -1 7.00 -11.80 27.00 42 <
1 12 0 288.14 275.30 29.20 42 o
1 14 0 76.51 34.80 26.50 42 <
1 12 1 5.73 -60.40 26.50 42 <
1 13 1 0.51 20.10 25.90 42 <
1 13 2 9.79 -10.90 25.90 42 <
1 13 3 22.72 12.40 25.80 42 <
-1 -13 4 42.08 -33.00 26.50 42 <
1 13 4 22.46 -5.00 26.10 42 <
-1 -13 5 6.28 -24.50 25.80 42 <
-1 -13 6 99.63 34.20 26.90 42 <
-1 -12 6 188.79 143.20 27.00 42 o
0 4 6 12486.00 11968.40 87.80 42 o
-1 -13 7 1.47 34.70 25.50 42 <
-1 -12 7 4.47 1.60 25.80 42 <
-1 -11 7 17.59 23.00 26.10 42 <
-1 -12 8 11.81 37.90 25.40 42 <
-1 -11 8 16.50 33.70 26.10 42 <
-1 -10 8 1964.80 2012.00 41.20 42 o
0 4 8 3738.00 3987.70 58.80 42 o
0 5 8 34.57 55.60 31.90 42 <
-1 -12 9 28.39 28.00 25.90 42 <
-1 -11 9 35.73 8.30 26.00 42 <
-1 -10 9 99.11 30.70 27.20 42 <
-1 -12 10 166.76 34.30 26.30 42 <
-1 -11 10 59.42 25.30 25.60 42 <
-1 -10 10 463.42 283.80 28.60 42 o
-1 -9 10 542.08 507.30 30.80 42 o
0 5 10 56.57 45.20 28.90 42 <
0 6 10 180.67 168.60 30.10 42 o
-1 -11 11 51.47 34.90 25.70 42 <
-1 -10 11 30.10 51.50 25.70 42 <
-1 -9 11 0.88 -6.90 26.00 42 <
-1 -11 12 3.00 11.00 25.70 42 <
-1 -10 12 9.47 -29.70 25.70 42 <
-1 -9 12 106.55 65.70 26.50 42 <
-1 -8 12 26.24 60.50 26.00 42 <
0 5 12 141.62 206.00 29.70 42 o
0 6 12 485.72 606.10 32.20 42 o
0 7 12 272.51 259.00 29.50 42 o
-1 -10 13 0.38 17.20 25.40 42 <
-1 -9 13 6.04 33.20 25.70 42 <
-1 -8 13 3.14 5.20 25.70 42 <
-1 -7 13 1.17 -36.90 26.20 42 <
-1 -10 14 10.77 54.40 25.70 42 <
-1 -9 14 3.47 31.50 25.50 42 <
-1 -8 14 169.13 98.10 26.50 42 o
-1 -7 14 18.72 14.50 25.60 42 <
0 6 14 191.45 123.20 28.20 42 o
-1 -9 15 0.85 -6.40 25.50 42 <
-1 -8 15 0.23 14.80 25.50 42 <
-1 -7 15 0.93 0.40 25.60 42 <
-1 -6 15 4.65 -3.40 25.80 42 <
-1 -8 16 230.36 158.10 27.30 42 o
-1 -7 16 167.30 130.10 27.20 42 o
-1 -6 16 47.34 69.30 25.90 42 <
0 6 16 710.11 592.80 31.60 42 o
0 7 16 130.52 113.00 26.50 42 o
-1 -7 17 0.71 -11.60 25.60 42 <
-1 -6 17 0.42 -13.10 25.70 42 <
-1 -5 17 1.01 -1.00 25.60 42 <
-1 -6 18 37.88 69.40 25.90 42 <
-1 -5 18 19.44 34.90 25.60 42 <
-1 -5 19 0.08 20.80 25.30 42 <
-1 -4 19 0.33 22.00 25.70 42 <
1 -2 -20 115.13 64.50 29.20 43 <
1 -1 -20 58.42 0.30 28.40 43 <
1 -2 -19 13.48 -3.20 28.30 43 <
1 -1 -19 12.46 29.40 28.60 43 <
1 1 -19 16.19 4.00 28.60 43 <
1 -1 -18 86.37 46.60 29.30 43 <
1 1 -18 13.65 -2.80 28.90 43 <
1 2 -18 201.07 170.70 30.50 43 o
1 1 -17 41.17 56.70 29.50 43 <
1 2 -17 30.84 -2.80 29.20 43 <
1 1 -16 523.49 536.80 34.20 43 o
1 2 -16 138.46 155.10 30.80 43 o
1 3 -16 413.81 279.40 31.80 43 o
1 2 -15 9.78 -40.00 30.30 43 <
1 3 -15 178.29 180.40 31.80 43 o
1 4 -15 10.25 74.50 29.60 43 <
0 -10 -14 20.16 -15.70 26.40 43 <
0 -9 -14 15.14 1.40 26.50 43 <
1 2 -14 1309.20 1373.30 40.80 43 o
1 3 -14 177.25 229.20 32.20 43 o
1 4 -14 578.53 561.80 33.70 43 o
1 3 -13 179.58 124.30 32.70 43 o
1 4 -13 2.79 -19.90 30.20 43 <
1 5 -13 25.15 68.70 30.20 43 <
0 -11 -12 29.26 28.60 26.50 43 <
0 -10 -12 4.18 -9.40 26.40 43 <
0 -9 -12 91.13 35.00 27.70 43 <
0 -8 -12 8.66 4.20 26.80 43 <
0 -7 -12 405.31 374.40 30.40 43 o
1 4 -12 343.26 375.10 33.90 43 o
1 5 -12 193.80 163.70 32.00 43 o
1 5 -11 12.51 41.80 31.80 43 <
1 6 -11 3.21 30.60 30.10 43 <
0 -9 -10 154.22 106.30 27.90 43 o
0 -8 -10 60.25 -7.30 27.90 43 <
0 -7 -10 129.36 204.80 29.50 43 o
0 -6 -10 168.18 140.60 30.10 43 o
1 5 -10 2041.60 2298.80 45.80 43 o
1 6 -10 581.26 744.20 36.50 43 o
1 7 -10 643.54 572.60 35.40 43 o
1 6 -9 2.50 0.90 30.60 43 <
1 7 -9 399.16 380.70 34.20 43 o
0 -7 -8 2251.20 2569.10 46.50 43 o
0 -6 -8 713.92 519.70 33.60 43 o
0 -5 -8 33.27 42.50 31.10 43 <
1 7 -8 44.73 53.40 31.40 43 <
1 8 -8 1142.50 1184.40 39.20 43 o
1 7 -7 423.56 334.60 33.70 43 o
1 8 -7 72.76 150.50 31.50 43 o
0 -5 -6 5476.10 4704.60 60.20 43 o
0 -4 -6 10108.00 10034.70 81.60 43 o
1 8 -6 796.29 857.00 36.20 43 o
1 9 -6 1337.40 1453.00 40.80 43 o
1 8 -5 83.69 73.60 29.40 43 <
1 9 -5 27.66 6.80 29.50 43 <
1 10 -5 12.51 68.80 29.60 43 <
0 -3 -4 4527.40 4398.90 64.10 43 o
1 9 -4 84.43 97.30 28.80 43 o
1 10 -4 789.95 966.40 35.50 43 o
1 9 -3 93.82 115.80 28.90 43 o
1 10 -3 0.92 81.70 27.60 43 <
1 11 -3 5.12 -68.90 27.80 43 <
1 10 -2 136.92 123.30 28.30 43 o
1 11 -2 10.87 68.90 26.50 43 <
1 10 -1 52.10 -10.90 27.60 43 <
1 11 -1 10.52 -4.70 26.60 43 <
1 12 -1 5.16 -11.50 26.80 43 <
-1 -14 0 84.08 1.00 26.40 43 <
1 12 0 174.87 223.50 28.30 43 o
-1 -14 1 6.41 2.30 25.70 43 <
-1 -13 1 1.77 -38.80 26.20 43 <
1 11 1 1.01 -5.70 26.80 43 <
1 12 1 2.25 7.20 26.30 43 <
1 13 1 1.41 6.40 26.30 43 <
-1 -13 2 28.30 2.10 26.20 43 <
-1 -12 2 231.98 182.50 27.50 43 o
1 12 2 222.51 171.20 28.20 43 o
1 13 2 5.63 -3.50 26.00 43 <
-1 -13 3 22.60 -14.20 26.00 43 <
-1 -12 3 54.26 42.90 26.60 43 <
-1 -11 3 5.80 50.30 27.00 43 <
1 12 3 43.72 7.20 27.10 43 <
1 13 3 21.00 -26.40 26.30 43 <
-1 -13 4 20.63 -21.30 26.50 43 <
-1 -12 4 349.36 342.10 29.10 43 o
-1 -11 4 324.67 168.80 28.40 43 o
1 12 4 694.05 624.50 31.80 43 o
1 13 4 21.61 20.30 25.90 43 <
-1 -13 5 1.66 -56.60 25.90 43 <
-1 -12 5 30.26 -7.40 26.30 43 <
-1 -11 5 1.23 -50.80 26.70 43 <
-1 -10 5 9.43 -26.30 27.50 43 <
1 13 5 3.36 17.90 26.00 43 <
-1 -13 6 139.89 87.30 27.10 43 o
-1 -12 6 172.44 67.60 26.60 43 <
-1 -11 6 458.69 506.90 30.80 43 o
-1 -10 6 72.83 58.60 27.50 43 <
-1 -9 6 1969.90 1997.30 42.70 43 o
0 4 6 14926.00 14137.70 94.20 43 o
1 13 6 147.53 122.80 26.90 43 o
-1 -12 7 7.09 2.20 26.20 43 <
-1 -11 7 12.86 34.70 26.50 43 <
-1 -10 7 7.63 4.70 27.60 43 <
-1 -9 7 77.88 49.80 28.30 43 <
1 13 7 1.14 3.00 26.20 43 <
-1 -11 8 40.01 -11.10 26.20 43 <
-1 -10 8 1237.10 1094.30 36.30 43 o
-1 -9 8 2170.20 2336.80 43.70 43 o
-1 -8 8 1194.80 1317.90 38.20 43 o
0 4 8 3640.20 3616.00 56.00 43 o
0 5 8 32.72 116.20 30.90 43 o
-1 -10 9 81.72 32.80 27.10 43 <
-1 -9 9 11.88 17.40 27.60 43 <
-1 -8 9 60.01 84.50 28.30 43 <
-1 -10 10 600.61 392.50 29.50 43 o
-1 -9 10 496.49 370.50 30.10 43 o
-1 -8 10 611.68 719.30 33.20 43 o
-1 -7 10 536.92 508.70 31.80 43 o
0 5 10 52.44 86.10 29.70 43 <
0 6 10 153.45 241.00 30.40 43 o
-1 -9 11 0.83 -3.70 26.50 43 <
-1 -8 11 13.51 -4.50 27.20 43 <
-1 -7 11 12.98 -5.90 27.50 43 <
-1 -6 11 4.97 52.60 26.70 43 <
-1 -9 12 121.93 87.80 26.90 43 o
-1 -8 12 29.46 53.80 25.90 43 <
-1 -7 12 511.01 423.40 30.60 43 o
-1 -6 12 383.71 423.00 30.80 43 o
0 6 12 461.98 572.50 32.00 43 o
-1 -8 13 2.80 -12.90 25.90 43 <
-1 -7 13 0.33 -1.30 26.20 43 <
-1 -6 13 11.42 -11.60 27.00 43 <
-1 -5 13 28.07 33.20 27.70 43 <
-1 -8 14 231.10 173.20 27.20 43 o
-1 -7 14 7.76 10.60 25.80 43 <
-1 -6 14 29.19 48.90 26.70 43 <
-1 -5 14 1494.00 1716.70 40.10 43 o
0 6 14 232.52 181.60 28.70 43 o
-1 -7 15 1.05 -19.80 25.60 43 <
-1 -6 15 4.97 43.80 25.60 43 <
-1 -5 15 0.52 5.00 26.60 43 <
-1 -4 15 5.64 12.10 27.00 43 <
-1 -7 16 193.49 181.60 27.40 43 o
-1 -6 16 65.93 72.50 26.50 43 <
-1 -5 16 87.01 65.30 26.90 43 <
-1 -4 16 62.44 47.90 26.70 43 <
0 7 16 80.08 90.90 27.30 43 o
-1 -6 17 1.85 -22.40 25.90 43 <
-1 -5 17 0.43 3.80 25.70 43 <
-1 -4 17 5.32 17.40 26.00 43 <
-1 -3 17 22.61 -24.10 26.00 43 <
-1 -6 18 68.96 56.00 25.50 43 <
-1 -5 18 36.53 4.90 25.90 43 <
-1 -4 18 83.54 10.10 26.40 43 <
-1 -3 18 22.18 51.40 25.90 43 <
-1 -5 19 0.56 5.90 25.30 43 <
-1 -4 19 0.24 17.50 25.60 43 <
-1 -3 19 0.95 22.40 25.20 43 <
-1 -2 19 23.33 13.20 25.80 43 <
-1 -3 20 26.49 -7.40 25.50 43 <
-1 -2 20 110.26 67.80 26.60 43 <
1 -2 -20 158.74 121.70 29.40 44 o
1 -1 -20 159.47 90.00 28.80 44 o
1 -3 -19 1.50 45.10 28.40 44 <
1 -2 -19 19.63 -46.40 28.70 44 <
1 -1 -19 21.87 47.30 28.30 44 <
1 -2 -18 133.57 124.30 29.80 44 o
1 -1 -18 21.01 26.00 28.60 44 <
1 -1 -17 45.67 95.80 28.40 44 o
1 1 -17 46.75 22.00 28.90 44 <
1 1 -16 584.44 623.90 34.60 44 o
1 1 -15 448.52 376.70 35.20 44 o
1 2 -15 8.54 -9.60 30.50 44 <
0 -10 -14 14.90 48.30 25.90 44 <
0 -9 -14 7.34 -27.60 26.80 44 <
1 1 -14 4989.30 4638.20 58.60 44 o
1 2 -14 783.27 1007.30 37.80 44 o
1 3 -14 173.46 199.90 32.20 44 o
1 2 -13 41.71 55.30 31.50 44 <
1 3 -13 123.25 71.90 31.10 44 <
0 -10 -12 10.33 30.70 26.00 44 <
0 -9 -12 59.89 49.10 27.10 44 <
0 -8 -12 6.39 32.00 26.40 44 <
0 -7 -12 368.91 311.30 30.00 44 o
1 3 -12 972.08 1029.80 39.10 44 o
1 4 -12 318.02 362.40 33.40 44 o
1 3 -11 39.92 57.90 31.00 44 <
1 4 -11 8.14 -64.20 30.50 44 <
0 -8 -10 77.90 -21.60 27.90 44 <
0 -7 -10 177.62 161.60 29.90 44 o
0 -6 -10 168.39 151.10 29.60 44 o
1 4 -10 24.64 43.60 30.80 44 <
1 5 -10 1736.40 1719.70 43.10 44 o
1 5 -9 224.49 204.90 31.80 44 o
1 6 -9 1.38 40.90 30.40 44 <
0 -6 -8 856.18 676.60 34.00 44 o
0 -5 -8 24.13 43.50 30.90 44 <
1 5 -8 167.03 232.70 30.70 44 o
1 6 -8 81.24 73.90 30.30 44 <
1 6 -7 148.77 104.90 29.50 44 o
1 7 -7 523.96 446.10 33.50 44 o
0 -4 -6 10101.00 10261.30 82.00 44 o
1 6 -6 103.11 99.60 29.30 44 o
1 7 -6 213.57 252.50 31.70 44 o
1 7 -5 220.90 185.20 30.00 44 o
1 8 -5 72.61 38.70 28.90 44 <
1 8 -4 25.20 56.70 27.80 44 <
-1 -13 -3 20.15 16.10 26.00 44 <
1 8 -3 146.11 61.60 29.20 44 <
1 9 -3 134.90 85.90 27.80 44 o
-1 -13 -2 8.70 46.60 26.50 44 <
-1 -12 -2 228.15 226.20 28.00 44 o
1 9 -2 48.89 -17.50 27.90 44 <
-1 -13 -1 0.67 -27.70 26.50 44 <
-1 -12 -1 3.70 -80.80 26.70 44 <
1 9 -1 11.83 64.70 27.90 44 <
1 10 -1 44.89 9.30 27.20 44 <
-1 -14 0 85.22 2.40 26.00 44 <
-1 -12 0 241.55 232.70 28.60 44 o
1 10 0 17.61 35.20 26.50 44 <
-1 -13 1 0.48 -18.60 26.10 44 <
-1 -12 1 4.39 48.00 26.40 44 <
-1 -11 1 6.48 32.10 26.20 44 <
-1 -10 1 74.18 48.10 27.00 44 <
1 10 1 41.02 41.80 27.40 44 <
1 11 1 1.82 34.90 27.10 44 <
-1 -12 2 235.03 222.90 28.00 44 o
-1 -11 2 67.90 16.40 26.80 44 <
-1 -10 2 232.99 118.60 28.90 44 o
1 10 2 188.65 195.70 28.60 44 o
1 11 2 10.11 37.00 26.40 44 <
1 12 2 273.93 197.20 27.80 44 o
-1 -12 3 72.19 66.80 26.70 44 <
-1 -11 3 5.25 -6.00 26.70 44 <
-1 -10 3 3.11 24.70 27.10 44 <
-1 -9 3 133.54 135.80 28.80 44 o
1 11 3 2.88 10.50 26.40 44 <
1 12 3 62.62 20.50 27.00 44 <
-1 -11 4 221.47 201.50 28.40 44 o
-1 -10 4 812.18 802.70 33.50 44 o
-1 -9 4 24.98 -10.00 28.00 44 <
1 11 4 207.70 116.20 28.20 44 o
1 12 4 601.68 475.10 30.60 44 o
-1 -10 5 11.55 -10.10 27.20 44 <
-1 -9 5 23.26 23.10 27.90 44 <
-1 -8 5 74.23 51.50 28.90 44 <
1 11 5 6.97 -15.20 26.40 44 <
1 12 5 35.57 11.90 27.00 44 <
1 13 5 4.05 15.00 26.30 44 <
-1 -9 6 1331.10 1353.60 37.80 44 o
-1 -8 6 864.38 813.90 35.20 44 o
1 12 6 121.16 36.80 26.70 44 <
1 13 6 127.92 110.30 26.50 44 o
-1 -9 7 109.87 98.40 28.90 44 o
-1 -8 7 73.25 78.60 28.70 44 <
-1 -7 7 408.33 377.10 31.70 44 o
1 12 7 5.86 -64.60 25.90 44 <
1 13 7 1.04 -13.90 25.90 44 <
-1 -8 8 1116.50 1155.50 36.60 44 o
-1 -7 8 45.10 40.80 28.60 44 <
-1 -6 8 85.46 142.60 29.40 44 o
0 4 8 3567.50 3681.70 54.80 44 o
-1 -7 9 371.19 434.30 31.30 44 o
-1 -6 9 6.38 -14.20 28.20 44 <
-1 -7 10 305.43 382.50 31.00 44 o
-1 -6 10 828.32 671.00 33.50 44 o
-1 -5 10 2010.50 2200.90 43.80 44 o
0 5 10 47.25 9.40 29.10 44 <
-1 -6 11 3.82 -10.50 27.70 44 <
-1 -5 11 2.68 39.30 27.50 44 <
-1 -6 12 424.22 473.60 31.10 44 o
-1 -5 12 141.08 161.80 28.60 44 o
-1 -4 12 335.48 360.40 30.80 44 o
-1 -5 13 30.02 57.30 27.50 44 <
-1 -4 13 1.64 18.10 27.70 44 <
-1 -5 14 1809.90 2107.10 42.50 44 o
-1 -4 14 403.91 304.70 29.80 44 o
-1 -3 14 180.84 204.60 28.70 44 o
0 6 14 175.73 127.10 28.20 44 o
-1 -5 15 0.71 -49.00 26.70 44 <
-1 -4 15 7.90 10.10 27.10 44 <
-1 -3 15 208.34 181.80 28.20 44 o
-1 -4 16 63.98 42.50 26.50 44 <
-1 -3 16 270.54 223.70 28.70 44 o
-1 -2 16 162.59 187.10 28.70 44 o
0 7 16 36.78 -28.20 26.20 44 <
-1 -4 17 12.40 -6.60 26.00 44 <
-1 -3 17 13.78 -6.30 25.90 44 <
-1 -2 17 25.27 -126.70 27.10 44 <
-1 -3 18 21.27 40.30 26.00 44 <
-1 -2 18 142.14 65.50 26.90 44 <
-1 -1 18 30.98 8.90 25.90 44 <
-1 -3 19 1.17 34.80 25.30 44 <
-1 -2 19 16.36 -6.80 26.00 44 <
-1 -1 19 19.01 3.60 25.50 44 <
-1 -3 20 58.73 40.20 25.50 44 <
-1 -2 20 90.20 37.40 26.30 44 <
-1 -1 20 129.76 74.90 26.30 44 <
1 -4 -19 3.19 -53.90 28.30 45 <
1 -3 -19 7.70 20.70 28.60 45 <
1 -2 -19 28.34 -38.90 28.50 45 <
1 -3 -18 4.49 58.20 27.80 45 <
1 -2 -18 190.73 118.90 29.80 45 o
1 -1 -18 32.40 48.50 28.60 45 <
2 6 -18 11.37 -28.90 27.50 45 <
1 -2 -17 25.17 12.40 29.00 45 <
1 -1 -17 42.92 12.40 29.10 45 <
2 7 -17 49.99 -8.50 27.90 45 <
1 -1 -16 609.64 583.70 35.00 45 o
2 7 -16 5.73 -9.60 27.50 45 <
2 8 -16 75.33 58.10 27.50 45 <
1 -1 -15 664.76 608.50 35.00 45 o
1 1 -15 619.83 493.70 36.40 45 o
2 8 -15 2.16 44.80 27.50 45 <
2 9 -15 4.64 46.50 27.20 45 <
0 -10 -14 16.27 -0.90 26.40 45 <
0 -9 -14 4.97 17.10 26.00 45 <
0 -8 -14 11.49 1.50 26.50 45 <
1 1 -14 3909.00 3688.10 54.60 45 o
2 8 -14 39.97 5.10 27.90 45 <
2 9 -14 9.89 1.10 27.50 45 <
1 1 -13 310.13 171.00 34.00 45 o
1 2 -13 30.52 -39.70 31.30 45 <
2 9 -13 2.43 22.30 27.60 45 <
2 10 -13 9.04 -15.30 27.50 45 <
0 -9 -12 16.42 19.20 26.80 45 <
0 -8 -12 5.36 -5.40 26.90 45 <
0 -7 -12 356.05 328.90 29.40 45 o
1 2 -12 1165.70 1145.80 38.80 45 o
2 10 -12 6.43 -22.20 27.70 45 <
2 11 -12 7.61 -19.90 27.50 45 <
1 2 -11 194.37 160.00 30.50 45 o
1 3 -11 52.94 -37.70 31.50 45 <
2 10 -11 16.82 0.80 28.10 45 <
2 11 -11 31.84 79.80 27.40 45 <
0 -7 -10 192.62 252.70 29.90 45 o
0 -6 -10 149.78 177.90 29.40 45 o
1 3 -10 1649.60 1643.90 41.60 45 o
1 4 -10 15.30 56.80 30.00 45 <
2 11 -10 210.87 128.70 29.50 45 o
1 4 -9 4.66 0.40 29.00 45 <
2 11 -9 4.22 69.90 28.70 45 <
2 12 -9 8.32 11.20 27.50 45 <
0 -5 -8 22.39 42.60 31.00 45 <
1 4 -8 137.78 230.80 31.40 45 o
1 5 -8 114.03 135.20 30.40 45 o
2 12 -8 7.26 -72.10 28.20 45 <
1 5 -7 295.56 261.10 32.70 45 o
2 12 -7 49.21 19.50 28.20 45 <
-1 -13 -6 140.94 134.70 27.10 45 o
0 -4 -6 11785.00 11981.00 87.60 45 o
1 5 -6 5769.70 5326.10 62.00 45 o
1 6 -6 91.50 129.60 29.30 45 o
2 13 -6 41.43 -9.30 28.00 45 <
-1 -13 -5 3.73 -8.20 26.40 45 <
1 6 -5 71.32 24.60 30.20 45 <
2 13 -5 15.74 29.80 27.50 45 <
-1 -13 -4 10.17 32.70 26.20 45 <
-1 -12 -4 627.46 502.70 31.10 45 o
1 6 -4 50.60 88.50 29.80 45 <
1 7 -4 128.62 224.50 31.00 45 o
-1 -13 -3 25.64 -20.40 26.00 45 <
-1 -12 -3 47.18 68.70 27.10 45 <
-1 -11 -3 4.82 14.30 26.60 45 <
1 7 -3 95.17 115.50 30.60 45 o
-1 -13 -2 5.82 -16.20 26.50 45 <
-1 -12 -2 218.91 158.90 27.80 45 o
-1 -11 -2 29.84 36.10 26.40 45 <
1 7 -2 3432.00 3779.40 53.70 45 o
1 8 -2 30.43 30.90 28.60 45 <
-1 -12 -1 6.76 -28.30 26.40 45 <
-1 -11 -1 2.24 15.30 26.20 45 <
-1 -10 -1 55.46 74.40 27.40 45 <
1 8 -1 51.44 21.60 28.40 45 <
1 9 -1 27.77 49.10 27.60 45 <
-1 -10 0 6.57 22.60 26.70 45 <
1 8 0 19.60 -2.90 28.40 45 <
-1 -10 1 37.77 37.50 26.90 45 <
-1 -9 1 26.54 28.60 26.80 45 <
1 9 1 10.39 -15.40 27.60 45 <
1 10 1 71.04 64.40 27.30 45 <
-1 -10 2 197.17 225.80 29.20 45 o
-1 -9 2 40.74 216.90 28.70 45 o
-1 -8 2 31.25 27.40 28.90 45 <
1 9 2 87.54 157.40 28.10 45 o
1 10 2 168.78 136.90 28.40 45 o
-1 -9 3 94.26 107.70 28.30 45 o
-1 -8 3 136.80 141.10 28.60 45 o
1 10 3 1.39 -47.60 27.60 45 <
1 11 3 6.45 -31.10 26.50 45 <
-1 -8 4 34.08 34.70 28.40 45 <
-1 -7 4 176.62 308.30 31.30 45 o
1 10 4 850.87 833.90 34.20 45 o
1 11 4 167.50 171.90 27.90 45 o
-1 -8 5 81.10 107.50 28.60 45 o
-1 -7 5 180.36 174.60 30.60 45 o
1 10 5 15.28 8.40 27.00 45 <
1 11 5 0.38 46.10 26.20 45 <
1 12 5 66.95 55.80 26.30 45 <
-1 -7 6 305.42 402.30 31.80 45 o
-1 -6 6 84.34 65.20 29.60 45 <
0 3 6 1527.70 1576.90 47.30 45 o
1 11 6 440.61 408.40 30.30 45 o
1 12 6 87.09 46.30 26.90 45 <
-1 -6 7 144.23 108.40 29.60 45 o
1 11 7 14.27 -34.40 26.20 45 <
1 12 7 3.50 18.90 25.60 45 <
1 13 7 0.94 -1.20 25.80 45 <
-1 -6 8 78.18 127.30 29.70 45 o
-1 -5 8 51.94 107.00 29.70 45 o
0 4 8 3908.90 4031.30 56.10 45 o
1 12 8 2.24 29.50 26.30 45 <
-1 -5 9 232.49 205.10 31.30 45 o
-1 -4 9 14.05 30.50 29.00 45 <
1 12 9 24.81 42.30 25.60 45 <
-1 -5 10 2071.60 2092.90 42.90 45 o
-1 -4 10 38.33 26.60 29.10 45 <
0 5 10 56.58 53.30 29.00 45 <
1 12 10 212.29 103.10 26.70 45 o
-1 -4 11 6.82 -40.90 28.10 45 <
-1 -3 11 69.21 72.40 29.20 45 <
-1 -4 12 376.79 349.70 30.50 45 o
-1 -3 12 1139.50 1231.30 37.70 45 o
-1 -3 13 120.70 73.60 29.70 45 <
-1 -2 13 32.48 -13.00 29.20 45 <
-1 -3 14 169.85 163.30 29.10 45 o
-1 -2 14 935.33 1022.20 36.20 45 o
-1 -3 15 279.58 270.40 28.90 45 o
-1 -2 15 6.15 -18.90 28.10 45 <
-1 -1 15 561.29 489.60 33.40 45 o
-1 -2 16 162.32 150.50 28.90 45 o
-1 -1 16 469.47 546.80 32.10 45 o
0 7 16 8.18 28.80 26.00 45 <
-1 -2 17 42.35 -7.80 27.20 45 <
-1 -1 17 54.30 34.70 27.20 45 <
-1 -1 18 13.60 -16.10 26.20 45 <
-1 -1 19 12.88 -6.20 25.80 45 <
-1 1 19 22.33 45.50 26.30 45 <
-1 -1 20 125.95 15.30 26.20 45 <
-1 1 20 175.31 73.20 26.20 45 <
1 -5 -19 1.63 44.70 27.70 46 <
1 -4 -19 1.38 25.50 28.20 46 <
1 -3 -19 4.40 10.20 28.60 46 <
2 4 -19 8.97 33.80 27.40 46 <
1 -4 -18 139.63 137.20 28.80 46 o
1 -3 -18 7.00 42.10 28.10 46 <
1 -2 -18 168.58 60.40 29.90 46 <
2 4 -18 168.30 52.40 28.40 46 <
2 5 -18 5.41 15.50 27.50 46 <
2 6 -18 23.12 -16.70 27.10 46 <
1 -3 -17 22.92 36.70 28.10 46 <
1 -2 -17 19.94 -38.10 28.90 46 <
2 5 -17 20.12 13.90 28.20 46 <
2 6 -17 13.32 34.20 27.60 46 <
1 -2 -16 178.80 288.30 30.90 46 o
1 -1 -16 604.50 504.20 34.20 46 o
2 6 -16 224.76 159.00 28.90 46 o
2 7 -16 10.88 -37.70 27.70 46 <
1 -1 -15 446.01 470.50 35.00 46 o
2 6 -15 14.21 -20.60 28.40 46 <
2 7 -15 3.57 72.90 27.80 46 <
0 -10 -14 29.05 37.90 26.00 46 <
0 -9 -14 3.10 -13.70 25.80 46 <
0 -8 -14 15.88 5.20 26.60 46 <
1 -1 -14 4699.30 4555.80 57.00 46 o
2 7 -14 57.20 -17.20 28.50 46 <
2 8 -14 25.40 33.40 27.90 46 <
1 1 -13 306.04 185.80 34.10 46 o
2 8 -13 29.45 26.90 28.40 46 <
2 9 -13 7.86 22.50 27.70 46 <
0 -8 -12 9.42 -23.90 26.50 46 <
0 -7 -12 355.20 275.70 29.10 46 o
1 1 -12 215.58 230.40 31.30 46 o
2 8 -12 23.12 19.10 28.30 46 <
2 9 -12 3.52 7.90 27.80 46 <
1 1 -11 219.93 33.50 30.30 46 <
1 2 -11 150.15 126.70 31.20 46 o
2 9 -11 14.81 48.50 28.50 46 <
2 10 -11 13.59 45.80 27.80 46 <
0 -7 -10 149.53 216.20 29.40 46 o
0 -6 -10 204.55 202.00 29.30 46 o
1 2 -10 1159.90 1200.20 38.60 46 o
2 9 -10 142.27 94.40 29.10 46 o
2 10 -10 446.99 328.10 31.20 46 o
1 3 -9 280.50 177.00 31.90 46 o
2 10 -9 4.21 36.60 28.10 46 <
2 11 -9 2.77 16.30 28.10 46 <
0 -5 -8 20.84 72.80 30.50 46 <
1 3 -8 1451.90 1142.00 39.70 46 o
1 4 -8 249.84 307.80 32.90 46 o
2 10 -8 101.95 118.60 28.80 46 o
2 11 -8 11.90 0.70 28.00 46 <
-1 -13 -7 1.13 -38.50 26.40 46 <
1 4 -7 355.55 212.30 34.90 46 o
2 11 -7 37.82 93.50 28.20 46 o
2 12 -7 54.70 54.10 28.10 46 <
-1 -13 -6 130.19 75.20 27.10 46 <
-1 -12 -6 102.44 30.20 26.70 46 <
0 -4 -6 13938.00 13822.60 92.40 46 o
1 5 -6 4949.70 4836.40 59.20 46 o
2 11 -6 80.36 65.50 28.60 46 <
2 12 -6 84.47 30.30 28.30 46 <
-1 -13 -5 2.48 -8.40 26.20 46 <
-1 -12 -5 41.54 29.80 26.90 46 <
-1 -11 -5 1.85 -18.70 26.70 46 <
1 5 -5 477.07 282.60 36.90 46 o
2 12 -5 78.15 2.80 28.20 46 <
2 13 -5 14.85 -28.20 27.60 46 <
-1 -12 -4 643.60 523.10 30.70 46 o
-1 -11 -4 119.96 132.80 27.70 46 o
1 6 -4 57.28 43.90 30.90 46 <
2 12 -4 5.07 -33.20 28.30 46 <
2 13 -4 44.40 44.70 28.00 46 <
-1 -12 -3 66.92 50.70 26.60 46 <
-1 -11 -3 3.09 16.70 26.40 46 <
-1 -10 -3 1.52 2.40 27.20 46 <
1 6 -3 59.97 16.20 31.70 46 <
2 13 -3 7.05 -36.50 27.80 46 <
-1 -11 -2 13.94 -20.10 26.60 46 <
-1 -10 -2 162.19 183.20 28.10 46 o
1 7 -2 2417.40 2722.40 47.90 46 o
2 13 -2 191.88 160.80 28.20 46 o
-1 -10 -1 45.85 78.70 27.40 46 <
-1 -9 -1 20.67 58.30 27.20 46 <
1 7 -1 61.56 51.90 30.40 46 <
-1 -8 0 28.42 -39.80 28.00 46 <
1 8 0 11.32 80.20 28.10 46 <
-1 -9 1 13.81 16.70 27.30 46 <
-1 -8 1 51.88 35.30 28.20 46 <
1 8 1 46.60 83.80 28.20 46 <
-1 -8 2 13.29 89.50 28.10 46 o
-1 -7 2 2646.50 2824.60 47.30 46 o
1 8 2 170.07 78.10 28.70 46 <
1 9 2 73.33 72.50 27.70 46 <
-1 -7 3 135.35 116.50 29.50 46 o
1 9 3 83.44 31.50 28.00 46 <
-1 -7 4 280.26 373.00 31.60 46 o
-1 -6 4 40.26 -38.10 29.60 46 <
1 9 4 149.01 68.40 27.70 46 <
1 10 4 836.12 858.80 33.90 46 o
-1 -6 5 72.70 73.90 29.60 46 <
1 10 5 4.83 56.20 26.80 46 <
-1 -5 6 3902.40 4338.80 56.50 46 o
0 3 6 1752.70 1595.00 46.40 46 o
1 10 6 24.24 30.70 27.20 46 <
1 11 6 510.90 503.50 30.90 46 o
-1 -5 7 294.19 268.00 32.30 46 o
1 11 7 14.23 19.80 26.40 46 <
-2 -12 8 9.77 5.80 25.70 46 <
-1 -4 8 108.55 265.00 31.00 46 o
0 4 8 3398.30 3417.10 52.30 46 o
1 11 8 7.79 36.60 26.00 46 <
1 12 8 5.96 27.00 26.20 46 <
-2 -12 9 10.73 34.90 25.70 46 <
-1 -4 9 4.21 -33.50 28.90 46 <
-1 -3 9 357.20 287.50 31.60 46 o
1 11 9 35.30 11.40 26.30 46 <
1 12 9 28.91 24.40 25.70 46 <
-2 -11 10 320.99 220.00 27.50 46 o
-1 -3 10 1322.70 1480.50 39.80 46 o
0 5 10 22.61 21.00 28.20 46 <
1 12 10 172.80 80.10 26.80 46 <
-2 -11 11 38.60 8.90 25.60 46 <
-1 -3 11 15.32 -14.90 28.60 46 <
-1 -2 11 150.16 163.80 30.10 46 o
-2 -11 12 13.14 -5.20 25.50 46 <
-2 -10 12 10.42 11.90 25.80 46 <
-1 -2 12 1217.30 1293.60 38.40 46 o
-2 -10 13 17.30 15.30 25.40 46 <
-1 -2 13 30.78 21.30 28.30 46 <
-1 -1 13 319.60 219.90 31.10 46 o
-2 -9 14 17.60 -15.10 25.80 46 <
-1 -2 14 1291.30 1265.20 37.30 46 o
-1 -1 14 3765.80 4189.70 54.30 46 o
-2 -9 15 4.32 17.10 25.50 46 <
-1 -1 15 461.01 455.90 31.80 46 o
-2 -8 16 38.87 22.70 25.90 46 <
-1 -1 16 648.81 523.90 31.10 46 o
0 7 16 11.33 27.90 26.20 46 <
-1 1 17 47.72 13.10 26.70 46 <
-1 1 18 82.39 73.90 26.20 46 <
-1 1 19 16.56 43.20 26.20 46 <
-1 2 19 20.83 28.80 26.00 46 <
-1 1 20 143.07 105.90 25.80 46 o
-1 2 20 99.79 74.50 26.60 46 <
1 -4 -19 0.33 -3.70 28.10 47 <
1 -3 -19 7.01 28.40 28.20 47 <
2 3 -19 21.83 -12.30 28.10 47 <
2 4 -19 7.23 32.90 27.20 47 <
1 -4 -18 69.61 26.00 28.20 47 <
1 -3 -18 24.23 10.50 28.10 47 <
2 4 -18 90.84 28.40 27.90 47 <
2 5 -18 4.55 -21.50 27.20 47 <
1 -3 -17 13.39 -48.80 28.40 47 <
1 -2 -17 19.57 2.10 28.30 47 <
2 4 -17 47.96 34.80 27.40 47 <
2 5 -17 12.89 27.50 27.80 47 <
1 -2 -16 106.36 153.70 29.90 47 o
1 -1 -16 483.57 454.20 32.40 47 o
2 5 -16 7.63 0.90 27.80 47 <
2 6 -16 135.86 -55.30 28.60 47 <
1 -1 -15 269.14 359.90 32.50 47 o
2 5 -15 54.16 9.40 28.70 47 <
2 6 -15 6.33 -33.70 28.10 47 <
0 -9 -14 2.60 -9.90 26.40 47 <
0 -8 -14 4.13 20.30 26.40 47 <
1 -1 -14 2994.30 3693.10 51.20 47 o
2 6 -14 47.92 5.60 28.50 47 <
2 7 -14 69.06 5.10 28.30 47 <
2 7 -13 29.19 88.30 28.20 47 o
0 -7 -12 221.26 236.50 29.30 47 o
1 1 -12 101.71 29.90 28.50 47 <
2 7 -12 141.45 139.40 29.10 47 o
2 8 -12 5.81 33.60 28.00 47 <
1 1 -11 101.01 1.40 29.00 47 <
2 8 -11 2.07 -8.00 28.20 47 <
0 -6 -10 101.92 252.90 28.80 47 o
1 2 -10 744.68 802.80 34.60 47 o
2 8 -10 29.86 21.30 29.00 47 <
2 9 -10 69.14 59.00 28.60 47 <
-1 -12 -9 21.63 71.20 26.70 47 <
1 2 -9 119.93 93.10 29.90 47 o
2 9 -9 26.59 28.40 28.90 47 <
-1 -12 -8 4.83 41.30 26.20 47 <
0 -5 -8 63.14 75.10 28.50 47 <
1 3 -8 561.60 683.60 35.60 47 o
2 9 -8 8.71 46.30 29.50 47 <
2 10 -8 39.17 72.20 28.70 47 <
-1 -13 -7 0.44 -52.50 26.20 47 <
-1 -12 -7 4.36 -2.70 26.70 47 <
-1 -11 -7 13.77 5.90 26.90 47 <
1 3 -7 419.39 253.80 35.80 47 o
2 10 -7 25.20 -15.40 28.70 47 <
-1 -12 -6 91.19 27.00 26.60 47 <
-1 -11 -6 270.78 386.10 29.40 47 o
1 4 -6 2253.00 2531.10 49.10 47 o
2 10 -6 13.49 -5.70 29.10 47 <
2 11 -6 69.24 48.10 28.50 47 <
-1 -11 -5 0.91 -20.90 26.20 47 <
-1 -10 -5 7.67 -40.20 26.90 47 <
2 11 -5 173.66 135.40 29.00 47 o
-1 -11 -4 153.93 126.60 26.70 47 o
-1 -10 -4 592.69 782.10 33.10 47 o
-1 -9 -4 36.87 12.60 27.60 47 <
1 5 -4 1534.10 1554.60 42.60 47 o
2 11 -4 20.09 8.60 28.30 47 <
2 12 -4 3.49 58.80 28.00 47 <
-1 -10 -3 1.34 39.70 26.60 47 <
-1 -9 -3 51.04 45.70 27.60 47 <
1 5 -3 18.83 -2.10 33.30 47 <
2 11 -3 117.91 -7.80 28.20 47 <
2 12 -3 68.35 83.10 28.00 47 <
-1 -9 -2 53.73 64.90 27.00 47 <
-1 -8 -2 67.83 97.40 28.70 47 o
1 6 -2 2895.40 3053.90 49.40 47 o
2 12 -2 37.53 25.40 26.90 47 <
2 13 -2 122.30 97.60 28.30 47 o
-1 -8 -1 31.04 20.60 27.60 47 <
1 6 -1 416.78 481.10 35.40 47 o
2 12 -1 68.92 100.10 26.50 47 o
2 13 -1 31.58 45.20 26.70 47 <
-1 -8 0 22.57 -1.70 27.90 47 <
-1 -7 1 41.01 81.40 28.80 47 <
1 7 1 48.22 43.00 29.40 47 <
2 13 1 28.88 30.00 26.10 47 <
-1 -7 2 2164.00 1581.00 39.80 47 o
-1 -6 2 3770.70 3864.80 54.30 47 o
1 8 2 28.46 0.50 28.30 47 <
-2 -13 3 8.44 -12.80 25.60 47 <
-1 -6 3 39.03 9.60 30.00 47 <
1 8 3 77.78 83.70 28.40 47 <
-2 -13 4 32.21 -6.60 25.60 47 <
-1 -6 4 46.63 -6.00 29.30 47 <
-1 -5 4 2059.50 2042.40 45.50 47 o
1 8 4 54.50 11.80 28.40 47 <
1 9 4 26.54 39.90 27.20 47 <
-2 -13 5 8.78 11.80 25.60 47 <
-2 -12 5 78.90 26.80 26.20 47 <
-1 -5 5 325.12 211.90 33.10 47 o
1 9 5 13.56 15.10 27.20 47 <
-2 -13 6 30.54 9.00 26.00 47 <
-2 -12 6 55.37 2.20 25.90 47 <
-1 -5 6 4065.10 2358.10 45.20 47 o
-1 -4 6 3019.90 3212.90 51.40 47 o
0 3 6 962.11 1548.30 45.80 47 o
1 9 6 1185.00 1038.50 34.40 47 o
1 10 6 31.62 -35.10 27.00 47 <
-2 -12 7 27.67 7.30 25.50 47 <
-2 -11 7 39.38 59.20 26.00 47 <
-1 -4 7 288.39 237.20 32.20 47 o
1 10 7 3.05 15.90 26.40 47 <
-2 -12 8 5.42 -10.40 25.40 47 <
-2 -11 8 7.10 -6.00 25.50 47 <
-1 -4 8 106.34 72.30 29.50 47 <
-1 -3 8 783.49 757.40 36.10 47 o
0 4 8 2784.00 3620.00 51.80 47 o
1 10 8 774.37 930.90 34.10 47 o
1 11 8 2.81 27.30 25.90 47 <
-2 -12 9 5.36 -9.80 25.50 47 <
-2 -11 9 0.31 -7.20 25.60 47 <
-2 -10 9 4.86 34.00 25.70 47 <
-1 -3 9 135.88 134.10 29.90 47 o
1 10 9 56.82 20.80 26.40 47 <
1 11 9 29.03 1.90 26.00 47 <
-2 -11 10 161.63 118.00 26.40 47 o
-2 -10 10 303.11 249.40 27.50 47 o
-1 -3 10 1398.40 913.70 34.80 47 o
-1 -2 10 1025.20 1022.50 36.30 47 o
0 5 10 42.33 -3.90 28.00 47 <
1 11 10 32.82 28.60 26.10 47 <
1 12 10 145.50 111.50 26.50 47 o
-2 -11 11 26.14 -20.30 25.60 47 <
-2 -10 11 2.62 38.00 25.20 47 <
-2 -9 11 17.78 -6.70 25.50 47 <
-1 -2 11 94.89 88.80 29.00 47 o
1 11 11 38.24 17.10 25.90 47 <
-2 -10 12 2.14 29.80 25.50 47 <
-2 -9 12 12.55 -13.20 25.70 47 <
-1 -2 12 911.65 933.10 35.30 47 o
-1 -1 12 168.11 92.90 29.10 47 o
-2 -10 13 16.08 -15.50 25.40 47 <
-2 -9 13 7.98 15.80 25.70 47 <
-2 -8 13 36.10 -9.80 25.80 47 <
-1 -1 13 211.74 190.00 29.50 47 o
-2 -9 14 6.70 29.70 25.30 47 <
-2 -8 14 8.12 -18.60 25.30 47 <
-1 -1 14 2495.80 3264.80 48.90 47 o
-2 -9 15 8.75 34.20 25.20 47 <
-2 -8 15 1.16 -5.10 25.40 47 <
-2 -7 15 4.03 6.50 25.20 47 <
-1 -1 15 345.39 234.70 29.60 47 o
-2 -8 16 32.13 1.20 25.70 47 <
-2 -7 16 7.64 -23.60 25.70 47 <
-2 -7 17 29.03 14.40 25.90 47 <
-2 -6 17 9.52 4.40 25.30 47 <
-1 1 17 34.34 5.80 26.30 47 <
-2 -6 18 16.67 26.50 25.50 47 <
-1 1 18 14.93 -23.70 25.80 47 <
-1 1 19 5.14 -7.90 26.00 47 <
-1 2 19 17.39 26.40 25.50 47 <
-1 1 20 70.24 52.90 25.70 47 <
-1 2 20 89.64 102.40 26.00 47 o
2 0 -20 13.83 -14.50 28.20 49 <
2 1 -20 48.33 -45.50 27.80 49 <
1 -5 -19 3.11 -18.10 27.80 49 <
2 0 -19 41.52 89.20 28.20 49 o
2 1 -19 3.02 -8.50 28.00 49 <
1 -5 -18 11.82 -29.80 27.20 49 <
1 -4 -18 44.15 59.70 28.20 49 <
2 1 -18 10.64 51.80 28.20 49 <
2 2 -18 11.60 8.40 28.00 49 <
1 -4 -17 3.69 0.90 27.50 49 <
1 -3 -17 19.08 -4.30 28.20 49 <
2 2 -17 108.67 79.70 29.20 49 <
1 -4 -16 77.18 44.60 26.90 49 <
1 -3 -16 204.67 151.30 29.00 49 o
2 2 -16 609.74 321.80 31.60 49 o
2 3 -16 46.32 127.20 28.90 49 o
1 -3 -15 145.45 105.90 27.60 49 o
1 -2 -15 13.21 16.90 28.10 49 <
2 3 -15 134.39 91.00 29.90 49 o
2 4 -15 67.65 60.20 29.40 49 <
3 8 -15 7.33 34.40 27.40 49 <
0 -9 -14 8.19 15.30 26.20 49 <
0 -8 -14 6.33 37.20 26.40 49 <
1 -2 -14 620.31 665.00 33.30 49 o
2 4 -14 7.34 49.70 28.80 49 <
3 9 -14 22.36 -44.00 27.70 49 <
1 -2 -13 56.58 -8.80 28.00 49 <
1 -1 -13 202.29 209.40 29.80 49 o
2 4 -13 54.33 85.50 28.50 49 <
2 5 -13 114.97 93.20 29.60 49 o
0 -7 -12 297.27 213.60 29.00 49 o
1 -1 -12 121.55 122.70 29.00 49 o
2 5 -12 12.89 -23.40 29.00 49 <
3 10 -12 50.41 67.40 27.60 49 <
2 5 -11 37.92 -31.30 29.90 49 <
2 6 -11 2.59 34.40 29.20 49 <
-1 -12 -10 117.23 18.40 26.80 49 <
0 -6 -10 161.25 136.40 28.90 49 o
2 6 -10 375.71 489.90 33.60 49 o
3 11 -10 4.60 12.20 27.60 49 <
-1 -12 -9 15.53 75.00 26.80 49 <
-1 -11 -9 42.47 16.50 26.70 49 <
1 1 -9 357.07 278.10 32.70 49 o
2 7 -9 49.41 -70.80 31.40 49 <
-1 -12 -8 1.19 28.70 26.80 49 <
-1 -11 -8 4.03 -51.80 26.60 49 <
0 -5 -8 36.00 107.90 30.20 49 o
2 7 -8 1328.00 1323.50 40.30 49 o
3 12 -8 36.37 66.80 28.00 49 <
-1 -11 -7 12.08 42.50 26.90 49 <
-1 -10 -7 13.20 -25.90 27.60 49 <
1 2 -7 374.14 320.30 39.20 49 o
2 8 -7 401.28 386.20 33.80 49 o
-1 -10 -6 63.88 114.10 28.40 49 o
-1 -9 -6 1633.80 1662.10 39.60 49 o
2 8 -6 100.25 143.80 30.70 49 o
-1 -9 -5 30.82 43.60 27.90 49 <
1 3 -5 131.36 47.80 37.20 49 <
2 9 -5 380.52 412.20 32.60 49 o
-1 -9 -4 56.69 31.40 28.30 49 <
-1 -8 -4 161.14 116.30 29.70 49 o
1 4 -4 1403.50 1674.80 46.60 49 o
2 9 -4 356.22 245.30 31.00 49 o
-1 -8 -3 99.51 91.80 28.60 49 o
1 4 -3 89.04 37.20 36.80 49 <
2 10 -3 17.61 -113.70 28.20 49 <
-2 -13 -2 210.87 152.30 28.00 49 o
-1 -7 -2 2197.70 2003.40 43.60 49 o
1 5 -2 2367.90 2297.60 49.80 49 o
2 10 -2 960.81 927.80 34.70 49 o
-2 -13 -1 40.96 49.50 26.50 49 <
-1 -7 -1 51.52 83.90 30.00 49 <
1 5 -1 87.54 80.60 36.80 49 <
2 11 -1 2.91 34.10 26.60 49 <
-2 -12 0 565.17 373.10 29.60 49 o
-1 -6 0 6241.80 6150.40 66.10 49 o
1 6 0 6668.70 6848.30 68.50 49 o
-2 -13 1 57.31 -29.00 26.50 49 <
-2 -12 1 58.43 -8.60 26.30 49 <
-1 -6 1 543.38 452.00 36.80 49 o
1 6 1 448.95 415.20 37.40 49 o
2 11 1 1.67 18.40 26.60 49 <
2 12 1 52.24 34.10 26.60 49 <
-2 -12 2 37.13 87.00 26.90 49 o
-2 -11 2 107.34 116.90 27.40 49 o
-1 -5 2 2409.40 2161.50 49.30 49 o
1 7 2 2151.90 2327.10 45.30 49 o
2 12 2 58.33 77.80 26.40 49 <
-2 -12 3 90.72 53.40 26.10 49 <
-2 -11 3 85.74 -0.50 26.70 49 <
1 7 3 106.09 116.00 29.60 49 o
2 12 3 55.81 -11.60 26.10 49 <
2 13 3 7.23 -5.90 25.60 49 <
-2 -11 4 3.23 -15.10 26.10 49 <
-2 -10 4 1378.60 974.60 34.90 49 o
-1 -4 4 1076.20 1327.20 45.00 49 o
1 8 4 153.15 182.80 29.30 49 o
2 13 4 31.40 -14.00 26.20 49 <
-2 -10 5 91.60 96.60 27.50 49 o
1 8 5 36.15 -11.80 28.40 49 <
2 13 5 18.92 -49.80 26.60 49 <
-2 -10 6 22.51 -11.90 26.30 49 <
-2 -9 6 197.00 155.70 28.30 49 o
-1 -3 6 3718.50 4489.00 60.60 49 o
0 3 6 1177.40 1269.50 44.30 49 o
1 9 6 994.03 1079.20 35.60 49 o
2 13 6 61.42 38.60 26.10 49 <
-2 -9 7 106.82 124.30 27.70 49 o
1 9 7 62.73 82.20 27.30 49 o
-2 -9 8 6.54 7.00 26.50 49 <
-2 -8 8 1430.80 1407.80 37.60 49 o
-1 -2 8 83.60 119.00 32.80 49 o
0 4 8 2874.20 3005.90 49.70 49 o
1 9 8 2400.80 2488.60 44.30 49 o
1 10 8 961.70 1083.60 34.80 49 o
-2 -8 9 182.64 125.50 28.20 49 o
-2 -7 9 98.65 53.30 27.50 49 <
-1 -1 9 485.85 373.10 32.60 49 o
1 10 9 46.55 29.30 26.80 49 <
-2 -8 10 46.55 18.70 27.00 49 <
-2 -7 10 3.99 16.90 27.00 49 <
-1 -1 10 72.34 92.10 29.30 49 o
1 10 10 477.71 193.60 29.10 49 o
1 11 10 43.99 79.10 26.60 49 <
-2 -7 11 76.59 79.50 27.10 49 <
-2 -6 11 9.66 1.90 27.30 49 <
-1 -1 11 171.31 128.30 29.60 49 o
1 10 11 54.99 23.70 26.40 49 <
1 11 11 29.67 31.70 25.70 49 <
-2 -7 12 247.97 146.10 27.70 49 o
-2 -6 12 190.45 79.20 27.80 49 <
1 11 12 6.61 1.60 26.10 49 <
-2 -6 13 20.18 9.00 26.20 49 <
-2 -5 13 118.63 75.30 27.20 49 <
-1 1 13 246.10 179.00 29.90 49 o
-2 -6 14 98.79 -15.40 26.50 49 <
-2 -5 14 104.48 11.50 26.80 49 <
-1 1 14 2965.00 3053.90 48.60 49 o
-2 -5 15 54.11 92.40 26.40 49 o
-2 -4 15 56.65 -5.80 26.80 49 <
-1 1 15 345.93 399.90 30.90 49 o
-1 2 15 18.35 35.30 27.60 49 <
-2 -5 16 6.77 -2.90 25.60 49 <
-2 -4 16 39.74 27.10 25.90 49 <
-1 2 16 65.43 95.50 27.80 49 o
-2 -4 17 38.00 2.10 25.60 49 <
-2 -3 17 80.61 60.80 26.20 49 <
-1 2 17 24.18 -20.70 26.00 49 <
-1 3 17 18.67 28.10 26.00 49 <
-2 -4 18 126.26 93.60 26.30 49 o
-2 -3 18 8.09 -36.50 26.00 49 <
-1 2 18 116.56 85.50 26.70 49 o
-1 3 18 45.49 59.00 26.10 49 <
-2 -3 19 27.31 8.40 25.60 49 <
-2 -2 19 19.12 -29.70 25.50 49 <
-1 3 19 2.51 29.60 25.80 49 <
-1 4 19 1.60 34.60 25.50 49 <
2 0 -20 19.17 41.40 28.20 50 <
1 -5 -19 1.83 43.50 27.80 50 <
2 0 -19 31.73 92.30 28.20 50 o
1 -5 -18 12.32 -42.90 27.70 50 <
2 0 -18 13.83 17.40 28.30 50 <
2 1 -18 7.08 -20.40 29.00 50 <
1 -5 -17 3.93 -10.60 26.30 50 <
1 -4 -17 11.28 -37.30 27.30 50 <
2 1 -17 2.23 34.90 29.10 50 <
2 2 -17 220.51 216.30 30.00 50 o
3 6 -17 3.99 -19.70 27.70 50 <
1 -4 -16 74.06 77.20 27.30 50 <
1 -3 -16 352.72 301.30 31.00 50 o
2 2 -16 453.14 504.60 33.10 50 o
3 7 -16 66.39 64.90 28.20 50 <
1 -3 -15 223.10 149.10 29.00 50 o
2 2 -15 80.10 6.80 30.20 50 <
2 3 -15 240.92 245.40 31.30 50 o
3 7 -15 14.25 1.50 27.90 50 <
3 8 -15 10.55 86.10 27.50 50 o
0 -9 -14 6.02 24.30 26.30 50 <
0 -8 -14 10.30 8.60 26.80 50 <
1 -3 -14 106.68 144.80 28.90 50 o
1 -2 -14 895.56 1269.90 38.00 50 o
2 3 -14 204.67 143.40 31.30 50 o
3 8 -14 78.48 48.60 28.10 50 <
3 9 -14 60.83 124.10 28.10 50 o
1 -2 -13 29.27 -8.70 29.30 50 <
2 3 -13 416.41 376.60 32.20 50 o
2 4 -13 63.69 13.00 30.00 50 <
3 8 -13 20.38 55.10 27.80 50 <
3 9 -13 65.33 21.10 28.40 50 <
0 -7 -12 391.90 299.90 30.20 50 o
1 -1 -12 152.98 178.50 30.40 50 o
2 4 -12 108.03 112.40 31.30 50 o
3 9 -12 220.48 96.60 29.30 50 o
3 10 -12 118.06 73.20 28.60 50 <
1 -1 -11 209.03 183.20 29.90 50 o
2 5 -11 45.32 48.60 29.90 50 <
3 10 -11 64.15 98.40 28.20 50 o
-1 -12 -10 166.67 94.50 27.00 50 o
-1 -11 -10 93.96 55.60 27.00 50 <
0 -6 -10 160.43 187.90 29.50 50 o
2 5 -10 56.53 159.60 31.70 50 o
3 10 -10 52.65 -16.60 28.60 50 <
3 11 -10 11.64 15.70 28.20 50 <
-1 -12 -9 50.21 73.90 27.10 50 <
-1 -11 -9 42.42 24.00 26.50 50 <
2 6 -9 64.65 50.40 31.60 50 <
3 11 -9 95.27 17.60 29.30 50 <
-1 -11 -8 20.18 -4.80 27.00 50 <
-1 -10 -8 1367.00 1364.70 37.40 50 o
0 -5 -8 82.12 113.80 32.10 50 o
1 1 -8 38.93 235.40 35.50 50 o
2 6 -8 1302.80 1220.30 40.70 50 o
3 11 -8 38.06 65.70 28.40 50 <
3 12 -8 49.88 27.60 28.40 50 <
-1 -10 -7 17.13 56.20 27.90 50 <
2 7 -7 34.17 120.10 32.30 50 o
3 12 -7 0.81 -35.00 28.00 50 <
-1 -10 -6 103.25 49.80 28.40 50 <
-1 -9 -6 1240.70 1217.60 37.50 50 o
1 2 -6 18424.00 15595.50 98.90 50 o
2 7 -6 2129.50 2027.40 44.20 50 o
3 12 -6 155.01 69.80 28.80 50 <
-1 -9 -5 30.61 30.50 28.70 50 <
-1 -8 -5 97.58 67.60 29.20 50 <
1 3 -5 230.94 255.70 40.30 50 o
2 8 -5 230.54 253.70 31.30 50 o
-1 -8 -4 111.70 247.10 31.50 50 o
1 3 -4 2933.30 2803.10 55.20 50 o
2 8 -4 156.69 159.40 30.20 50 o
2 9 -4 569.52 477.80 33.10 50 o
-2 -13 -3 16.43 -32.50 26.60 50 <
-1 -8 -3 196.81 137.00 30.00 50 o
-1 -7 -3 153.46 199.20 30.70 50 o
1 4 -3 172.06 106.50 38.30 50 <
2 9 -3 42.67 36.20 27.80 50 <
3 13 -3 143.30 137.40 28.50 50 o
-2 -13 -2 281.81 139.10 28.20 50 o
-1 -7 -2 2494.30 2980.10 49.50 50 o
2 9 -2 296.52 303.40 30.70 50 o
2 10 -2 1755.60 1420.90 38.30 50 o
-2 -13 -1 34.06 81.80 26.50 50 o
-2 -12 -1 50.76 26.90 26.70 50 <
-1 -6 -1 633.17 688.00 40.60 50 o
1 5 -1 62.05 29.70 36.70 50 <
2 10 -1 14.24 7.00 27.60 50 <
-2 -12 0 645.27 499.00 31.10 50 o
-1 -6 0 8959.70 9564.30 79.90 50 o
2 10 0 219.84 167.60 28.40 50 o
-2 -12 1 115.21 49.20 27.30 50 <
-2 -11 1 15.94 -25.50 27.10 50 <
-1 -5 1 76.09 3.70 37.80 50 <
1 6 1 535.05 644.10 40.00 50 o
2 11 1 1.57 16.50 26.60 50 <
-2 -11 2 168.31 191.20 28.80 50 o
-2 -10 2 1496.30 1437.80 38.70 50 o
1 6 2 5534.80 6689.80 68.40 50 o
2 11 2 73.16 50.30 27.40 50 <
2 12 2 68.32 162.90 27.50 50 o
-2 -10 3 37.61 51.40 27.40 50 <
-1 -4 3 116.82 163.50 38.40 50 o
1 7 3 122.50 142.00 30.80 50 o
2 12 3 65.13 32.40 26.90 50 <
-2 -10 4 1633.90 1489.20 38.80 50 o
-2 -9 4 531.69 424.80 32.20 50 o
0 2 4 9461.50 9397.70 86.70 50 o
1 7 4 360.74 384.50 32.30 50 o
2 12 4 9.30 21.30 26.60 50 <
2 13 4 54.04 31.00 26.40 50 <
-2 -9 5 466.30 491.50 32.70 50 o
-1 -3 5 149.08 91.00 40.60 50 <
1 8 5 58.82 33.70 28.90 50 <
2 12 5 122.67 26.40 26.80 50 <
2 13 5 16.34 -39.30 26.90 50 <
-2 -9 6 317.50 270.20 29.60 50 o
-2 -8 6 145.90 159.00 29.90 50 o
0 3 6 2028.10 1812.90 48.60 50 o
1 8 6 1170.00 1063.80 37.20 50 o
2 13 6 59.77 -17.90 26.40 50 <
-2 -8 7 467.86 570.40 32.70 50 o
-1 -2 7 580.16 599.90 45.80 50 o
1 9 7 108.12 66.70 28.60 50 <
-2 -7 8 1801.60 1699.20 41.80 50 o
0 4 8 3257.70 3812.20 54.70 50 o
1 9 8 2494.40 2597.70 46.40 50 o
-2 -7 9 57.17 86.50 28.70 50 o
-1 -1 9 453.18 415.00 34.50 50 o
1 9 9 22.96 -0.80 28.20 50 <
1 10 9 76.70 24.80 28.00 50 <
-2 -6 10 526.21 473.60 31.80 50 o
1 10 10 396.24 295.60 29.70 50 o
-2 -6 11 4.99 2.50 28.00 50 <
1 10 11 67.49 36.90 26.90 50 <
1 11 11 45.80 44.40 26.00 50 <
-2 -5 12 15.01 20.50 27.00 50 <
-1 1 12 220.08 143.90 30.00 50 o
1 11 12 17.52 9.70 26.10 50 <
-2 -5 13 101.13 95.40 27.70 50 o
-2 -4 13 102.62 95.80 28.10 50 o
-1 1 13 368.48 256.20 31.30 50 o
-2 -4 14 41.83 23.60 26.70 50 <
-1 1 14 4448.80 4910.80 58.50 50 o
-1 2 14 968.05 1217.60 37.70 50 o
-2 -4 15 63.90 56.70 26.60 50 <
-2 -3 15 292.18 166.20 28.30 50 o
-1 2 15 3.24 53.10 28.30 50 <
-2 -4 16 105.61 42.00 26.70 50 <
-2 -3 16 88.20 52.40 26.50 50 <
-1 2 16 152.43 98.60 28.80 50 o
-1 3 16 385.93 291.10 29.40 50 o
-2 -3 17 83.62 64.80 26.80 50 <
-2 -2 17 220.65 68.50 27.00 50 <
-1 3 17 26.31 17.50 26.50 50 <
-2 -3 18 52.81 0.10 26.30 50 <
-2 -2 18 23.73 -3.20 26.00 50 <
-1 3 18 21.29 2.20 26.00 50 <
-1 4 18 110.33 132.50 27.00 50 o
-2 -2 19 13.97 -46.10 25.80 50 <
-2 -1 19 9.53 4.10 25.80 50 <
-1 3 19 5.94 -3.70 26.10 50 <
-1 4 19 7.69 1.50 25.60 50 <
-2 -1 20 45.64 13.80 25.80 50 <
1 -5 -19 3.92 44.50 27.60 51 <
2 -1 -19 3.60 3.00 27.90 51 <
2 0 -19 48.92 118.70 28.00 51 o
1 -6 -18 51.33 -20.00 26.40 51 <
1 -5 -18 31.28 64.90 27.00 51 <
2 0 -18 15.55 -2.90 28.00 51 <
1 -5 -17 1.43 30.00 26.30 51 <
1 -4 -17 9.35 -1.30 26.80 51 <
2 0 -17 13.91 -0.60 28.30 51 <
2 1 -17 3.00 9.90 28.70 51 <
3 5 -17 2.73 35.30 27.30 51 <
3 6 -17 2.84 29.40 27.00 51 <
1 -4 -16 84.52 129.40 27.10 51 o
2 1 -16 777.29 570.70 34.20 51 o
3 6 -16 16.23 -41.30 27.10 51 <
1 -4 -15 7.17 -12.90 26.80 51 <
1 -3 -15 175.40 161.80 28.50 51 o
2 2 -15 89.39 98.10 30.00 51 o
3 6 -15 7.01 -34.60 27.80 51 <
3 7 -15 6.61 -18.70 27.70 51 <
0 -9 -14 11.43 74.30 25.90 51 <
0 -8 -14 13.04 24.50 26.40 51 <
1 -3 -14 134.78 171.70 28.70 51 o
2 2 -14 312.68 277.40 33.00 51 o
3 7 -14 19.77 -3.60 27.70 51 <
1 -2 -13 40.89 37.30 28.50 51 <
2 3 -13 248.17 43.70 31.80 51 <
3 8 -13 6.93 2.80 27.40 51 <
0 -7 -12 310.68 218.10 29.10 51 o
1 -2 -12 1640.20 1401.20 39.90 51 o
2 3 -12 21.52 0.60 30.60 51 <
2 4 -12 113.75 173.90 30.50 51 o
3 8 -12 53.53 -20.40 28.50 51 <
3 9 -12 128.50 103.40 28.70 51 o
-1 -11 -11 75.83 39.50 26.60 51 <
1 -1 -11 155.96 118.80 29.90 51 o
2 4 -11 40.07 1.70 30.40 51 <
3 9 -11 14.66 18.70 28.00 51 <
-1 -12 -10 160.90 50.60 27.30 51 <
-1 -11 -10 60.44 32.10 26.70 51 <
0 -6 -10 147.47 233.80 29.60 51 o
2 5 -10 38.94 54.00 30.70 51 <
3 9 -10 43.85 16.60 28.30 51 <
3 10 -10 37.20 40.00 28.20 51 <
-1 -11 -9 44.06 -2.80 27.00 51 <
-1 -10 -9 77.57 66.40 27.70 51 <
2 5 -9 358.48 328.60 32.50 51 o
3 10 -9 99.67 105.10 28.60 51 o
-1 -10 -8 1196.90 1175.50 36.70 51 o
1 1 -8 37.56 128.60 34.30 51 o
2 6 -8 1261.90 1048.10 38.40 51 o
3 10 -8 245.68 145.40 29.70 51 o
3 11 -8 31.32 -13.20 28.20 51 <
-1 -10 -7 19.33 68.40 28.00 51 <
-1 -9 -7 65.73 8.30 29.30 51 <
1 1 -7 288.63 188.60 37.70 51 o
2 6 -7 661.62 623.90 34.60 51 o
3 11 -7 40.49 -17.60 28.20 51 <
-1 -9 -6 1118.40 1383.40 39.20 51 o
1 2 -6 15858.00 14821.60 97.20 51 o
2 7 -6 1454.40 1530.80 40.70 51 o
3 11 -6 266.35 193.00 29.50 51 o
3 12 -6 113.52 64.50 28.70 51 <
-2 -13 -5 33.66 -1.60 26.60 51 <
-1 -8 -5 71.36 -17.10 29.50 51 <
2 7 -5 137.21 214.00 29.60 51 o
3 12 -5 107.56 112.80 28.20 51 o
-2 -13 -4 34.09 52.20 26.00 51 <
-1 -8 -4 51.19 64.40 30.10 51 <
1 3 -4 1797.50 1986.90 50.30 51 o
2 8 -4 171.41 137.50 29.50 51 o
3 12 -4 269.49 134.80 29.40 51 o
-2 -13 -3 9.98 32.00 26.20 51 <
-2 -12 -3 82.68 52.90 26.80 51 <
-1 -7 -3 102.32 155.00 32.30 51 o
2 8 -3 117.25 34.90 28.70 51 <
3 13 -3 78.94 4.20 28.10 51 <
-2 -13 -2 277.45 244.60 27.90 51 o
-2 -12 -2 19.78 49.00 26.50 51 <
-1 -6 -2 6308.50 7320.30 71.00 51 o
1 4 -2 181.54 401.10 39.50 51 o
2 9 -2 231.72 177.30 29.00 51 o
3 13 -2 11.73 -36.90 28.10 51 <
-2 -12 -1 84.58 52.80 27.20 51 <
-2 -11 -1 4.92 -0.70 26.90 51 <
-1 -6 -1 471.69 599.80 39.70 51 o
2 9 -1 50.06 112.40 27.10 51 o
2 10 0 178.11 100.40 27.80 51 o
-2 -11 1 9.73 -14.90 27.10 51 <
-2 -10 1 29.50 40.50 27.50 51 <
-1 -5 1 83.14 89.00 36.50 51 <
2 10 1 26.88 -5.10 26.90 51 <
-2 -10 2 1343.10 1140.50 37.00 51 o
-1 -4 2 266.75 433.70 40.70 51 o
1 6 2 3793.00 4376.20 58.60 51 o
2 11 2 48.01 44.30 27.00 51 <
-2 -9 3 41.74 8.10 28.00 51 <
2 11 3 78.68 30.50 27.00 51 <
-2 -9 4 323.99 263.40 30.50 51 o
-2 -8 4 373.48 401.60 31.10 51 o
-1 -3 4 1870.00 2002.50 50.70 51 o
0 2 4 8297.20 8720.40 84.60 51 o
1 7 4 197.81 212.30 30.80 51 o
2 11 4 42.82 78.90 26.90 51 <
2 12 4 1.52 -22.20 26.30 51 <
-2 -8 5 231.61 190.20 30.40 51 o
1 7 5 278.49 281.90 30.00 51 o
2 12 5 79.97 50.70 25.90 51 <
-2 -8 6 106.57 178.90 30.10 51 o
-2 -7 6 2117.70 2135.20 44.10 51 o
-1 -2 6 15020.00 14183.80 95.40 51 o
0 3 6 1361.80 1561.00 46.20 51 o
1 8 6 510.54 522.00 33.20 51 o
2 12 6 73.82 43.90 26.20 51 <
2 13 6 61.08 22.90 26.10 51 <
-3 -12 7 1.51 -15.60 26.10 51 <
-2 -7 7 31.89 33.60 30.10 51 <
1 8 7 72.84 25.60 28.20 51 <
-3 -12 8 49.55 40.60 25.90 51 <
-2 -7 8 2037.20 2010.00 43.20 51 o
-2 -6 8 1261.40 1164.30 37.90 51 o
-1 -1 8 22.15 58.70 34.10 51 <
0 4 8 3522.30 3503.00 53.40 51 o
1 9 8 2405.50 2374.90 44.60 51 o
-3 -11 9 121.93 88.20 26.60 51 o
-2 -6 9 69.56 17.80 28.00 51 <
1 9 9 8.78 4.30 27.50 51 <
-3 -11 10 3.05 8.20 26.00 51 <
-2 -6 10 642.90 675.70 33.00 51 o
-2 -5 10 40.15 51.20 28.20 51 <
1 10 10 611.96 308.90 29.80 51 o
-3 -10 11 72.81 18.00 26.10 51 <
-2 -5 11 32.42 -29.00 27.40 51 <
1 10 11 37.67 3.00 26.50 51 <
-3 -10 12 48.51 40.80 26.00 51 <
-2 -5 12 31.41 109.00 27.10 51 o
-2 -4 12 82.32 105.80 27.60 51 o
-1 1 12 110.04 88.20 29.70 51 <
1 10 12 21.86 -13.90 26.40 51 <
1 11 12 5.48 -3.90 25.90 51 <
-3 -9 13 85.88 17.80 26.10 51 <
-2 -4 13 63.43 73.50 27.60 51 <
-1 1 13 242.34 188.90 31.50 51 o
-3 -9 14 34.10 -11.70 25.70 51 <
-2 -4 14 27.44 20.00 27.00 51 <
-2 -3 14 111.55 53.70 27.90 51 <
-1 2 14 736.24 844.50 35.80 51 o
-3 -8 15 3.27 48.20 25.70 51 <
-2 -3 15 148.15 102.10 27.90 51 o
-1 2 15 14.39 10.60 28.10 51 <
-2 -3 16 82.69 29.10 26.60 51 <
-2 -2 16 562.94 389.30 30.70 51 o
-1 2 16 177.61 212.20 29.00 51 o
-1 3 16 238.12 212.10 28.90 51 o
-2 -2 17 112.07 27.80 26.80 51 <
-1 3 17 14.36 3.20 26.00 51 <
-2 -2 18 24.63 -7.50 26.00 51 <
-2 -1 18 14.40 -2.40 25.60 51 <
-1 3 18 38.76 38.10 26.30 51 <
-1 4 18 39.44 79.40 25.90 51 o
-2 -1 19 1.80 14.60 25.60 51 <
-1 4 19 0.74 -0.40 25.60 51 <
-2 -1 20 87.97 -4.30 26.50 51 <
-2 0 20 35.01 26.80 25.80 51 <
2 -1 -19 5.25 40.10 28.20 52 <
1 -6 -18 43.62 -13.70 26.50 52 <
1 -5 -18 10.46 32.80 27.00 52 <
2 -1 -18 13.33 15.60 28.10 52 <
2 0 -18 4.66 -16.60 27.60 52 <
3 4 -18 121.24 33.80 28.10 52 <
1 -5 -17 2.78 3.50 26.20 52 <
2 0 -17 9.71 14.30 28.50 52 <
3 4 -17 55.09 46.50 27.90 52 <
3 5 -17 2.15 9.10 27.50 52 <
1 -4 -16 54.61 69.30 27.00 52 <
2 0 -16 158.22 133.70 29.40 52 o
2 1 -16 692.77 585.50 33.70 52 o
3 5 -16 10.99 11.70 27.90 52 <
1 -4 -15 8.24 -2.30 26.70 52 <
1 -3 -15 175.55 187.90 28.50 52 o
2 1 -15 6.30 2.60 30.20 52 <
3 5 -15 10.84 22.00 28.00 52 <
3 6 -15 3.05 -17.10 27.80 52 <
0 -8 -14 7.83 2.80 26.80 52 <
1 -3 -14 80.67 84.50 28.00 52 o
2 2 -14 229.85 235.60 31.90 52 o
3 6 -14 13.25 30.10 28.30 52 <
1 -2 -13 47.81 19.10 28.10 52 <
2 2 -13 141.10 57.70 30.40 52 <
3 7 -13 0.94 -14.70 28.00 52 <
0 -7 -12 189.75 198.10 28.80 52 o
1 -2 -12 893.21 782.60 34.80 52 o
2 3 -12 21.55 -79.60 30.70 52 <
3 7 -12 236.16 173.60 29.70 52 o
-1 -11 -11 32.19 -41.30 26.70 52 <
1 -1 -11 144.32 94.80 29.00 52 o
2 3 -11 393.20 302.80 32.20 52 o
3 8 -11 9.15 76.70 28.00 52 <
-1 -11 -10 47.50 -12.40 26.60 52 <
-1 -10 -10 327.29 280.20 29.10 52 o
0 -6 -10 174.01 119.30 29.40 52 o
1 -1 -10 29.27 22.20 28.70 52 <
2 4 -10 62.42 38.60 29.80 52 <
3 8 -10 86.76 -22.00 28.20 52 <
3 9 -10 56.81 -21.70 28.40 52 <
-1 -10 -9 70.03 29.60 27.50 52 <
3 9 -9 1.38 -1.60 28.30 52 <
-1 -10 -8 1141.80 994.30 36.40 52 o
-1 -9 -8 2062.90 2332.30 44.40 52 o
2 5 -8 9.62 89.00 29.00 52 o
3 9 -8 396.90 196.70 30.60 52 o
3 10 -8 234.72 107.40 29.50 52 o
-1 -9 -7 71.42 -0.80 29.20 52 <
1 1 -7 152.88 182.20 34.60 52 o
3 10 -7 5.22 31.30 28.40 52 <
-2 -13 -6 36.29 -76.20 26.50 52 <
-1 -8 -6 799.66 677.80 34.80 52 o
2 6 -6 8.73 -10.40 29.40 52 <
3 10 -6 23.73 -28.90 29.60 52 <
3 11 -6 285.61 199.60 29.60 52 o
-2 -13 -5 9.09 11.90 26.30 52 <
-1 -8 -5 50.24 37.70 29.10 52 <
1 2 -5 9.08 -14.30 35.90 52 <
2 7 -5 184.92 128.30 29.50 52 o
3 11 -5 2.45 69.50 27.80 52 <
-2 -13 -4 37.53 45.60 26.50 52 <
-2 -12 -4 18.70 12.20 27.10 52 <
-1 -7 -4 178.50 238.90 31.10 52 o
2 7 -4 339.83 258.60 30.00 52 o
3 11 -4 67.19 44.10 28.50 52 <
3 12 -4 324.19 147.10 29.20 52 o
-2 -12 -3 49.71 24.50 26.80 52 <
-2 -11 -3 109.32 16.50 27.20 52 <
1 3 -3 1073.90 1039.80 46.10 52 o
2 8 -3 148.19 94.70 28.60 52 o
3 12 -3 154.47 94.40 28.60 52 o
-2 -11 -2 143.91 104.50 27.90 52 o
-1 -6 -2 2793.50 3586.80 54.40 52 o
2 8 -2 993.69 989.90 35.70 52 o
3 12 -2 72.33 59.30 27.80 52 <
3 13 -2 4.88 -24.90 27.60 52 <
-2 -11 -1 1.42 0.00 27.30 52 <
-2 -10 -1 10.02 14.80 26.60 52 <
1 4 -1 2150.40 1976.20 50.90 52 o
2 9 -1 60.07 10.50 27.10 52 <
3 13 -1 7.05 -4.50 27.80 52 <
-2 -10 0 145.99 93.20 28.20 52 o
-2 -10 1 22.47 39.40 27.50 52 <
-2 -9 1 34.34 4.60 27.70 52 <
1 5 1 55.93 37.70 34.70 52 <
2 9 1 37.33 61.40 27.40 52 <
2 10 1 13.86 4.90 27.10 52 <
-2 -9 2 119.94 88.80 29.00 52 o
-1 -4 2 309.15 474.60 41.00 52 o
2 10 2 906.27 706.70 33.00 52 o
-3 -13 3 65.11 9.80 26.30 52 <
-2 -8 3 95.55 129.40 29.10 52 o
1 6 3 41.98 74.30 30.30 52 <
2 10 3 38.57 22.00 26.90 52 <
2 11 3 110.43 -6.10 27.10 52 <
-2 -8 4 247.18 151.10 30.30 52 o
0 2 4 6840.80 7089.50 78.30 52 o
2 11 4 4.98 43.20 26.50 52 <
-3 -12 5 94.27 76.90 26.90 52 <
-2 -7 5 102.30 144.60 30.00 52 o
-1 -2 5 41.58 -35.40 43.90 52 <
1 7 5 171.19 91.80 29.20 52 o
2 11 5 151.35 51.30 27.30 52 <
2 12 5 69.03 32.10 26.40 52 <
-3 -12 6 67.43 55.70 26.20 52 <
-2 -7 6 1354.30 1448.40 39.60 52 o
-1 -2 6 18902.00 19520.70 109.00 52 o
0 3 6 1355.10 1408.80 45.20 52 o
2 12 6 63.47 40.40 26.50 52 <
-3 -12 7 5.39 32.70 25.60 52 <
-3 -11 7 40.44 29.30 26.20 52 <
-2 -6 7 544.01 463.40 33.40 52 o
-1 -1 7 188.09 174.80 38.00 52 o
1 8 7 65.85 34.00 28.20 52 <
2 12 7 36.62 19.90 26.30 52 <
-3 -11 8 15.05 25.20 25.60 52 <
-2 -6 8 1026.80 916.20 36.30 52 o
-1 -1 8 48.32 126.70 33.70 52 o
0 4 8 2127.40 2510.40 47.80 52 o
1 8 8 1001.10 1035.70 35.80 52 o
2 12 8 12.49 -11.50 26.10 52 <
-3 -11 9 132.32 76.90 26.40 52 <
-3 -10 9 91.38 72.70 26.00 52 <
-2 -5 9 310.43 298.60 31.30 52 o
1 9 9 5.77 41.90 27.00 52 <
-3 -10 10 29.64 33.20 26.10 52 <
-3 -9 10 63.89 18.90 26.20 52 <
-2 -5 10 36.26 43.80 28.00 52 <
1 9 10 325.03 219.20 29.60 52 o
-3 -10 11 76.57 72.10 26.20 52 <
-3 -9 11 13.62 36.40 25.80 52 <
-2 -4 11 28.29 36.40 27.90 52 <
-1 1 11 148.84 159.00 29.90 52 o
1 10 11 37.97 40.20 26.40 52 <
-3 -9 12 81.51 71.70 26.30 52 <
-3 -8 12 91.93 18.80 26.10 52 <
-2 -4 12 56.22 103.30 28.00 52 o
-1 1 12 93.27 81.60 29.40 52 <
1 10 12 18.96 -15.20 26.40 52 <
-3 -9 13 95.38 -5.80 25.90 52 <
-3 -8 13 8.00 -26.50 26.00 52 <
-2 -3 13 180.02 74.40 29.00 52 <
-1 2 13 44.24 -31.70 28.50 52 <
1 10 13 4.03 -48.50 26.20 52 <
-3 -8 14 67.96 31.40 25.50 52 <
-3 -7 14 19.00 1.40 25.90 52 <
-2 -3 14 88.76 38.60 27.80 52 <
-1 2 14 855.23 872.40 34.60 52 o
-3 -8 15 3.27 40.40 25.60 52 <
-3 -7 15 9.40 21.00 25.50 52 <
-2 -2 15 57.69 -12.20 27.70 52 <
-1 2 15 6.42 3.50 27.60 52 <
-1 3 15 146.15 60.60 28.10 52 <
-3 -7 16 51.88 13.60 26.10 52 <
-3 -6 16 36.20 -4.50 25.50 52 <
-2 -2 16 396.79 298.90 29.70 52 o
-1 3 16 216.92 200.20 28.20 52 o
-3 -6 17 2.77 -11.10 25.80 52 <
-2 -2 17 167.39 84.70 27.30 52 o
-2 -1 17 8.49 -17.50 26.50 52 <
-1 3 17 15.81 12.90 26.20 52 <
-1 4 17 6.28 -27.50 26.10 52 <
-2 -1 18 8.47 1.40 25.70 52 <
-1 4 18 92.20 69.50 26.80 52 <
-2 -1 19 10.82 9.50 25.50 52 <
-2 0 19 18.63 53.20 25.60 52 <
-1 4 19 1.26 -9.90 25.90 52 <
-1 5 19 1.45 41.60 25.70 52 <
-2 0 20 14.66 5.80 25.60 52 <
2 -2 -19 20.51 48.40 27.90 53 <
3 2 -19 40.11 -9.00 27.50 53 <
1 -6 -18 26.02 -49.90 26.20 53 <
1 -5 -18 16.60 47.10 26.90 53 <
2 -1 -18 17.17 -24.90 28.20 53 <
3 3 -18 46.02 85.70 27.50 53 o
1 -5 -17 3.14 -3.20 26.10 53 <
2 -1 -17 5.82 -2.80 28.60 53 <
2 0 -17 18.58 126.40 28.20 53 o
3 4 -17 42.18 -6.90 27.60 53 <
1 -5 -16 115.25 38.00 26.80 53 <
1 -4 -16 60.94 53.40 26.50 53 <
2 0 -16 166.95 103.80 29.90 53 o
3 4 -16 40.28 46.90 28.00 53 <
1 -4 -15 4.09 -16.60 26.40 53 <
2 0 -15 79.38 7.10 29.70 53 <
2 1 -15 9.35 14.90 30.20 53 <
3 5 -15 4.66 17.80 28.00 53 <
0 -8 -14 4.31 65.80 26.10 53 <
1 -3 -14 106.95 182.40 28.00 53 o
2 1 -14 1443.20 1225.10 39.80 53 o
3 5 -14 625.66 404.20 32.30 53 o
3 6 -14 40.47 -13.80 28.50 53 <
1 -3 -13 94.59 62.40 27.40 53 <
2 2 -13 148.54 51.80 30.80 53 <
3 6 -13 38.78 -17.20 28.50 53 <
-1 -11 -12 17.52 -50.70 26.60 53 <
0 -7 -12 266.82 252.80 28.90 53 o
1 -2 -12 932.06 1030.30 36.10 53 o
2 2 -12 889.75 580.30 34.20 53 o
3 6 -12 91.35 73.60 28.50 53 <
3 7 -12 354.71 275.90 30.90 53 o
-1 -11 -11 55.09 -12.10 26.60 53 <
2 3 -11 348.62 357.10 32.20 53 o
3 7 -11 34.45 -22.70 28.40 53 <
-1 -11 -10 50.32 5.80 26.80 53 <
-1 -10 -10 392.97 279.10 29.50 53 o
0 -6 -10 207.34 178.10 29.90 53 o
1 -1 -10 92.86 75.60 29.80 53 <
2 3 -10 265.75 264.50 31.20 53 o
3 7 -10 60.80 49.50 29.40 53 <
3 8 -10 82.37 41.40 28.40 53 <
-1 -10 -9 71.90 0.90 28.00 53 <
2 4 -9 109.72 157.70 30.20 53 o
3 8 -9 49.98 14.00 29.00 53 <
-1 -9 -8 1865.80 2141.50 43.50 53 o
3 9 -8 493.51 318.40 31.50 53 o
-1 -9 -7 108.16 74.70 28.90 53 <
-1 -8 -7 52.44 13.00 28.90 53 <
2 5 -7 485.44 398.80 33.10 53 o
3 9 -7 207.33 92.00 29.50 53 o
-2 -13 -6 34.92 32.00 26.60 53 <
-2 -12 -6 78.78 152.80 27.20 53 o
-1 -8 -6 644.70 638.20 33.90 53 o
1 1 -6 5640.20 4859.80 62.00 53 o
3 10 -6 19.42 17.20 28.50 53 <
-2 -12 -5 54.59 -8.40 26.40 53 <
-1 -7 -5 206.85 261.80 30.50 53 o
2 6 -5 1295.60 1486.90 39.60 53 o
3 10 -5 44.31 83.40 28.70 53 <
-2 -12 -4 1.42 43.20 26.60 53 <
-2 -11 -4 14.15 -36.30 27.20 53 <
-1 -7 -4 218.37 267.80 31.40 53 o
3 10 -4 239.43 114.10 29.20 53 o
3 11 -4 70.70 44.00 29.10 53 <
-2 -11 -3 68.21 23.80 27.10 53 <
-1 -6 -3 76.32 69.10 32.00 53 <
1 3 -3 1550.20 1608.80 50.20 53 o
2 7 -3 86.69 69.30 29.00 53 <
3 11 -3 14.38 14.30 27.90 53 <
-2 -11 -2 86.34 84.60 27.80 53 o
-2 -10 -2 1013.00 1050.40 36.10 53 o
3 11 -2 29.00 62.20 27.20 53 <
3 12 -2 75.23 82.80 27.80 53 <
-2 -10 -1 48.23 40.90 27.50 53 <
-1 -5 -1 69.08 -96.20 36.20 53 <
1 4 -1 2902.10 2969.20 56.90 53 o
2 8 -1 5.80 -6.20 27.80 53 <
3 12 -1 6.51 25.60 26.70 53 <
3 12 0 70.99 42.80 26.30 53 <
-3 -13 1 1.37 18.70 26.00 53 <
-2 -9 1 15.20 9.80 27.30 53 <
-1 -4 1 2295.60 2519.40 53.10 53 o
1 5 1 51.96 98.50 36.40 53 <
2 9 1 21.33 44.00 27.30 53 <
3 13 1 5.08 -31.10 25.70 53 <
-3 -13 2 4.39 18.30 26.00 53 <
-2 -8 2 1341.80 1371.20 38.40 53 o
2 9 2 226.86 80.10 28.20 53 <
3 13 2 14.03 26.00 25.30 53 <
-3 -13 3 100.90 -3.40 26.50 53 <
-3 -12 3 156.99 114.60 27.50 53 o
-2 -8 3 103.08 215.90 29.90 53 o
-1 -3 3 1126.00 1421.70 49.80 53 o
1 6 3 54.44 113.10 30.60 53 o
2 10 3 24.71 22.20 27.40 53 <
-3 -12 4 267.39 85.30 27.10 53 o
-2 -7 4 341.00 309.90 31.80 53 o
0 2 4 7315.90 7580.50 80.60 53 o
1 6 4 119.80 301.10 31.00 53 o
2 10 4 1171.70 918.40 34.60 53 o
-3 -12 5 153.49 122.40 27.00 53 o
-3 -11 5 4.34 4.80 26.00 53 <
-1 -2 5 9.85 -34.90 38.30 53 <
1 7 5 198.33 187.00 29.80 53 o
2 11 5 153.00 109.60 27.40 53 o
-3 -11 6 211.59 164.80 28.00 53 o
-2 -6 6 17.25 76.90 30.70 53 <
0 3 6 1013.70 1139.90 43.70 53 o
1 7 6 217.80 362.60 31.70 53 o
2 11 6 42.94 12.70 26.30 53 <
-3 -11 7 67.33 20.20 26.10 53 <
-3 -10 7 6.61 -6.60 26.60 53 <
-1 -1 7 170.86 152.40 38.20 53 o
1 8 7 57.49 69.10 28.10 53 <
2 12 7 21.20 123.80 26.60 53 o
-3 -10 8 201.33 98.90 27.20 53 o
-2 -5 8 4.93 29.90 29.30 53 <
0 4 8 2727.30 3010.60 50.60 53 o
1 8 8 648.73 764.50 34.10 53 o
2 12 8 3.00 -17.50 26.20 53 <
-3 -9 9 1.89 -6.20 26.60 53 <
-2 -4 9 243.42 146.60 30.50 53 o
1 9 9 11.99 56.30 26.60 53 <
2 12 9 15.78 50.90 25.80 53 <
-3 -9 10 32.47 -8.10 26.20 53 <
-3 -8 10 105.55 28.60 26.90 53 <
-2 -4 10 69.14 91.70 28.10 53 o
1 9 10 283.44 321.70 29.00 53 o
-3 -8 11 11.65 29.90 26.20 53 <
-2 -3 11 443.53 383.10 31.10 53 o
-1 1 11 206.40 127.90 30.10 53 o
1 9 11 2.82 8.80 26.10 53 <
1 10 11 25.12 -5.80 26.10 53 <
-3 -8 12 47.04 19.40 26.40 53 <
-3 -7 12 409.91 248.90 29.00 53 o
-2 -3 12 6.97 8.80 27.90 53 <
1 10 12 15.87 6.00 26.20 53 <
-3 -7 13 1.13 -2.20 26.00 53 <
-2 -3 13 332.72 254.90 29.80 53 o
-2 -2 13 164.77 89.60 28.80 53 o
-1 2 13 17.93 16.20 28.60 53 <
1 10 13 1.88 20.10 25.90 53 <
-3 -7 14 10.18 -8.70 26.00 53 <
-3 -6 14 34.38 17.30 26.00 53 <
-2 -2 14 231.91 310.70 30.00 53 o
-1 2 14 908.92 1142.50 36.40 53 o
-3 -6 15 1.52 20.90 25.90 53 <
-2 -2 15 78.97 79.40 28.00 53 <
-2 -1 15 11.95 29.10 27.80 53 <
-1 3 15 101.78 127.40 27.90 53 o
-3 -6 16 14.20 -11.60 25.70 53 <
-3 -5 16 19.45 9.20 25.90 53 <
-2 -1 16 666.28 590.20 32.50 53 o
-1 3 16 239.23 237.70 28.50 53 o
-3 -6 17 6.91 -21.60 26.00 53 <
-3 -5 17 0.74 20.70 25.50 53 <
-2 -1 17 3.31 -51.20 27.00 53 <
-2 0 17 16.75 29.00 26.50 53 <
-1 4 17 4.03 15.00 26.10 53 <
-3 -4 18 175.74 106.40 26.10 53 o
-2 0 18 8.13 9.40 26.00 53 <
-1 4 18 47.55 47.90 26.40 53 <
-2 0 19 24.75 37.40 25.70 53 <
-1 4 19 1.65 26.00 25.80 53 <
-1 5 19 2.17 4.30 25.50 53 <
-2 0 20 18.83 -6.00 26.00 53 <
2 -3 -19 34.38 32.90 28.30 54 <
2 -2 -19 17.99 -8.60 28.30 54 <
3 1 -19 23.92 40.70 28.00 54 <
3 2 -19 29.83 -3.60 28.10 54 <
1 -6 -18 42.09 14.10 26.20 54 <
2 -2 -18 20.11 -10.20 28.50 54 <
3 2 -18 148.55 62.10 28.30 54 <
1 -6 -17 1.63 -25.10 26.00 54 <
1 -5 -17 3.50 14.30 26.00 54 <
2 -1 -17 12.08 84.20 28.70 54 <
3 3 -17 7.94 -5.40 28.00 54 <
1 -5 -16 55.25 20.30 26.60 54 <
2 -1 -16 852.22 674.80 34.40 54 o
3 3 -16 576.32 282.40 32.00 54 o
3 4 -16 93.79 61.40 28.90 54 <
1 -4 -15 10.40 9.10 26.60 54 <
2 0 -15 49.71 72.50 29.90 54 <
3 4 -15 19.40 68.90 28.80 54 <
0 -8 -14 12.00 15.10 26.50 54 <
1 -4 -14 413.76 347.50 30.40 54 o
2 1 -14 2172.70 2100.60 44.80 54 o
3 4 -14 73.94 45.00 28.70 54 <
3 5 -14 924.14 637.10 33.90 54 o
4 8 -14 12.47 -8.10 27.40 54 <
1 -3 -13 126.61 -25.10 29.10 54 <
2 1 -13 9.05 -15.30 30.80 54 <
3 5 -13 39.06 -15.80 29.30 54 <
-1 -11 -12 16.21 35.00 26.50 54 <
0 -7 -12 411.88 346.80 30.10 54 o
1 -2 -12 1721.70 1851.60 42.30 54 o
2 2 -12 948.70 997.40 38.50 54 o
3 6 -12 136.13 84.70 29.60 54 <
4 9 -12 5.32 13.70 27.60 54 <
-1 -11 -11 71.40 5.80 26.60 54 <
-1 -10 -11 38.86 6.80 26.90 54 <
1 -2 -11 133.71 115.50 30.60 54 o
2 2 -11 41.26 66.90 30.20 54 <
3 6 -11 9.08 9.30 29.50 54 <
4 10 -11 13.84 -36.60 27.70 54 <
-1 -10 -10 350.17 333.60 29.80 54 o
1 -1 -10 148.47 134.00 30.80 54 o
2 3 -10 119.89 137.50 31.40 54 o
3 7 -10 38.34 30.90 29.60 54 <
4 10 -10 226.89 157.90 28.50 54 o
-1 -9 -9 10.20 -55.40 28.40 54 <
1 -1 -9 479.00 386.40 34.10 54 o
2 3 -9 142.30 109.70 30.40 54 o
3 7 -9 878.05 854.90 37.10 54 o
-1 -9 -8 2118.10 2492.60 45.40 54 o
2 4 -8 1149.90 1275.70 39.20 54 o
3 8 -8 605.56 530.20 34.30 54 o
4 11 -8 45.17 46.70 28.10 54 <
-2 -12 -7 43.86 8.70 26.40 54 <
-1 -8 -7 46.37 51.40 29.20 54 <
3 8 -7 97.14 17.60 30.30 54 <
-2 -12 -6 145.31 87.30 27.20 54 o
-1 -8 -6 1242.80 1074.20 37.50 54 o
1 1 -6 4444.20 5153.80 64.50 54 o
2 5 -6 2954.20 3227.00 51.10 54 o
3 9 -6 174.76 116.50 30.40 54 o
-2 -12 -5 103.62 -13.60 26.70 54 <
-2 -11 -5 238.81 141.80 28.10 54 o
-1 -7 -5 171.31 261.50 31.30 54 o
3 9 -5 10.67 21.60 28.90 54 <
-2 -11 -4 11.76 3.00 27.30 54 <
1 2 -4 156.07 222.30 44.00 54 o
2 6 -4 31.28 84.60 29.80 54 <
3 10 -4 224.70 170.30 29.10 54 o
-2 -10 -3 38.37 -4.40 27.80 54 <
-1 -6 -3 47.12 126.10 31.40 54 o
3 10 -3 18.34 12.80 27.80 54 <
-2 -10 -2 1357.00 1202.90 37.30 54 o
-1 -5 -2 3548.50 2867.80 54.10 54 o
1 3 -2 8970.70 11619.50 90.60 54 o
2 7 -2 535.76 580.30 33.00 54 o
3 11 -2 23.94 30.30 27.80 54 <
-3 -13 -1 4.58 -56.20 26.20 54 <
-2 -9 -1 21.16 8.80 27.80 54 <
3 11 -1 2.45 12.10 26.20 54 <
-1 -4 0 8659.60 7752.00 77.90 54 o
1 4 0 6351.40 7275.80 74.80 54 o
2 8 0 365.59 364.30 31.10 54 o
3 12 0 52.53 48.80 26.50 54 <
-3 -13 1 1.52 20.70 26.00 54 <
-3 -12 1 6.84 30.10 26.40 54 <
-2 -8 1 4.46 4.20 28.60 54 <
2 8 1 8.17 -19.60 27.90 54 <
3 12 1 4.03 -22.50 26.20 54 <
-3 -12 2 78.70 56.10 26.60 54 <
-1 -3 2 10302.00 11978.40 92.60 54 o
0 1 2 981.38 1908.80 78.80 54 o
1 5 2 2164.80 2483.00 50.70 54 o
2 9 2 76.83 125.80 28.80 54 o
3 12 2 124.23 20.40 26.30 54 <
3 13 2 20.87 14.60 25.60 54 <
-3 -12 3 257.61 156.60 27.30 54 o
-3 -11 3 32.59 26.30 26.10 54 <
-2 -7 3 97.49 98.10 30.00 54 o
2 9 3 40.72 16.10 27.60 54 <
3 13 3 83.15 37.50 26.00 54 <
-3 -11 4 66.43 30.60 26.40 54 <
-2 -6 4 101.34 70.20 30.60 54 <
-1 -2 4 175.31 92.30 43.70 54 <
0 2 4 7984.20 8759.80 84.90 54 o
1 6 4 39.08 171.30 30.90 54 o
2 10 4 1332.50 1277.60 36.70 54 o
-3 -10 5 88.44 55.10 26.80 54 <
-2 -6 5 1503.50 1547.60 43.10 54 o
2 10 5 56.93 22.90 27.30 54 <
-3 -10 6 55.38 34.80 26.30 54 <
-2 -5 6 3833.90 3247.70 52.10 54 o
-1 -1 6 4464.00 4441.50 61.70 54 o
0 3 6 1433.80 1550.00 46.70 54 o
1 7 6 322.53 408.30 32.30 54 o
2 11 6 71.69 36.60 26.40 54 <
-3 -9 7 241.02 110.10 28.40 54 o
-2 -5 7 671.40 663.50 36.20 54 o
1 7 7 475.28 355.20 31.60 54 o
2 11 7 48.56 16.50 26.20 54 <
-3 -9 8 422.94 312.50 29.60 54 o
-2 -4 8 1376.40 1189.30 39.00 54 o
1 8 8 847.05 919.90 35.70 54 o
2 12 8 24.84 46.30 26.20 54 <
-3 -8 9 51.98 32.70 26.90 54 <
-2 -4 9 142.89 162.10 30.50 54 o
1 8 9 54.11 39.90 27.50 54 <
2 12 9 7.08 -1.50 25.80 54 <
-3 -8 10 86.59 56.80 26.70 54 <
-2 -3 10 153.36 165.90 29.90 54 o
-1 1 10 25.47 -3.40 29.90 54 <
1 9 10 391.85 341.20 30.50 54 o
-3 -7 11 39.85 -2.10 26.30 54 <
-2 -3 11 455.11 355.30 31.60 54 o
-1 1 11 213.30 198.50 30.80 54 o
1 9 11 4.39 22.80 26.50 54 <
-3 -7 12 332.86 187.70 29.00 54 o
-2 -2 12 974.53 844.80 35.00 54 o
-1 2 12 1154.70 1138.20 37.30 54 o
1 10 12 12.04 6.90 26.10 54 <
-3 -6 13 14.97 8.80 26.20 54 <
-2 -2 13 184.97 138.10 29.10 54 o
-1 2 13 45.42 -67.40 28.80 54 <
1 10 13 1.85 18.10 25.80 54 <
-3 -6 14 78.88 -13.90 26.20 54 <
-2 -1 14 1878.70 1681.70 41.00 54 o
-1 3 14 128.90 69.40 28.20 54 <
1 10 14 10.33 52.50 26.30 54 <
-3 -5 15 7.95 -48.20 26.40 54 <
-2 -1 15 4.02 41.80 28.00 54 <
-1 3 15 147.02 115.10 28.10 54 o
-3 -5 16 18.54 12.90 26.20 54 <
-2 -1 16 1263.70 962.50 35.10 54 o
-2 0 16 206.27 138.50 28.00 54 o
-1 4 16 37.27 25.50 26.80 54 <
-3 -4 17 67.05 32.40 26.20 54 <
-2 0 17 12.55 -7.70 26.60 54 <
-1 4 17 1.83 11.40 26.10 54 <
-3 -4 18 138.44 86.80 26.40 54 o
-2 0 18 15.73 16.30 26.10 54 <
-2 1 18 30.62 -27.50 26.00 54 <
-1 4 18 102.72 98.20 26.70 54 o
-1 5 18 12.43 48.60 25.50 54 <
-2 1 19 4.95 -12.30 26.00 54 <
-1 5 19 3.26 -2.40 25.50 54 <
2 -3 -19 22.59 3.50 28.20 55 <
3 1 -19 8.11 37.80 27.80 55 <
1 -6 -18 17.23 29.10 26.30 55 <
2 -2 -18 10.88 -23.70 28.20 55 <
3 1 -18 34.96 28.70 28.40 55 <
3 2 -18 79.76 -8.60 28.80 55 <
1 -6 -17 2.60 25.70 26.00 55 <
1 -5 -17 1.86 21.10 25.90 55 <
2 -2 -17 102.42 84.80 28.80 55 <
2 -1 -17 8.69 -53.30 28.70 55 <
3 2 -17 34.80 47.70 28.40 55 <
1 -5 -16 85.44 70.10 26.70 55 <
2 -1 -16 622.08 602.30 34.00 55 o
3 3 -16 421.10 365.90 31.50 55 o
4 6 -16 46.04 3.90 27.40 55 <
1 -4 -15 4.65 38.30 26.40 55 <
2 0 -15 65.16 14.40 29.40 55 <
3 3 -15 265.30 137.90 30.60 55 o
4 7 -15 7.05 -27.10 27.10 55 <
0 -8 -14 10.10 36.20 26.40 55 <
1 -4 -14 283.28 233.20 29.20 55 o
2 0 -14 33.00 -15.60 30.00 55 <
3 4 -14 39.40 -18.70 28.70 55 <
4 7 -14 12.43 26.30 27.20 55 <
4 8 -14 17.94 16.40 27.00 55 <
1 -3 -13 74.97 8.70 28.30 55 <
2 1 -13 8.12 -36.40 30.30 55 <
3 4 -13 47.79 23.30 29.20 55 <
4 8 -13 10.33 41.70 27.50 55 <
-1 -11 -12 6.94 2.60 26.70 55 <
-1 -10 -12 7.72 43.20 26.20 55 <
0 -7 -12 424.35 305.10 29.40 55 o
1 -3 -12 1257.50 1153.10 37.00 55 o
2 1 -12 520.10 398.40 32.40 55 o
3 5 -12 149.96 231.10 30.50 55 o
4 8 -12 25.36 -38.40 28.00 55 <
4 9 -12 9.74 12.50 27.20 55 <
-1 -10 -11 37.62 14.50 26.60 55 <
1 -2 -11 102.16 140.30 30.20 55 o
2 2 -11 30.61 29.10 29.50 55 <
3 5 -11 114.52 25.00 29.30 55 <
4 9 -11 2.48 -3.20 27.60 55 <
-1 -10 -10 442.37 227.90 29.20 55 o
-1 -9 -10 430.14 318.50 30.50 55 o
2 2 -10 857.33 571.30 33.00 55 o
3 6 -10 407.86 365.30 31.90 55 o
4 9 -10 72.15 29.60 27.90 55 <
4 10 -10 177.31 28.30 28.60 55 <
-1 -9 -9 15.96 -18.50 27.60 55 <
1 -1 -9 282.73 331.40 34.00 55 o
2 3 -9 80.04 80.90 31.10 55 <
4 10 -9 12.18 71.20 27.40 55 <
-2 -12 -8 10.93 15.70 26.40 55 <
-1 -8 -8 773.52 992.70 35.40 55 o
3 7 -8 390.53 434.00 34.10 55 o
4 10 -8 1.60 37.40 27.90 55 <
4 11 -8 38.49 36.60 27.90 55 <
-2 -12 -7 33.90 -23.20 26.40 55 <
-1 -8 -7 46.80 14.70 28.50 55 <
2 4 -7 82.81 73.50 31.00 55 <
3 8 -7 117.09 53.30 30.20 55 <
4 11 -7 2.05 -20.70 28.00 55 <
-2 -12 -6 198.90 180.10 28.00 55 o
-2 -11 -6 32.13 29.70 26.80 55 <
-1 -7 -6 535.91 570.20 33.50 55 o
3 8 -6 373.37 371.70 33.20 55 o
4 11 -6 11.62 -23.20 27.50 55 <
-2 -11 -5 175.04 118.60 27.50 55 o
-1 -7 -5 252.50 214.80 29.90 55 o
2 5 -5 78.06 153.90 29.70 55 o
3 9 -5 10.45 7.80 28.60 55 <
4 12 -5 34.35 3.80 27.10 55 <
-2 -10 -4 977.11 987.20 35.20 55 o
-1 -6 -4 231.99 204.30 30.70 55 o
3 9 -4 191.91 86.00 29.50 55 <
4 12 -4 20.08 12.30 27.50 55 <
-2 -10 -3 25.67 -73.50 27.50 55 <
2 6 -3 13.49 51.00 29.00 55 <
3 10 -3 16.34 -34.70 28.00 55 <
-3 -13 -2 11.84 13.90 26.20 55 <
-2 -9 -2 102.53 121.00 28.60 55 o
-1 -5 -2 2426.60 2596.80 52.00 55 o
3 10 -2 98.51 81.60 27.70 55 <
-3 -13 -1 1.56 -43.30 26.50 55 <
2 7 -1 7.58 -10.90 28.50 55 <
3 10 -1 285.22 147.10 28.50 55 o
3 11 -1 4.28 26.40 26.10 55 <
-3 -12 0 58.45 43.70 26.40 55 <
-2 -8 0 227.37 216.40 29.60 55 o
-1 -4 0 6388.50 6025.90 69.70 55 o
-3 -12 1 4.59 -16.80 26.40 55 <
-3 -11 1 3.58 1.10 26.20 55 <
-2 -7 1 4.08 28.10 28.30 55 <
2 8 1 8.90 -56.00 28.10 55 <
3 11 1 14.92 2.60 26.00 55 <
-3 -11 2 18.10 -3.80 26.20 55 <
-2 -7 2 382.23 343.00 31.00 55 o
-1 -3 2 9607.80 9362.90 84.20 55 o
0 1 2 1437.70 2086.20 80.90 55 o
2 8 2 1735.70 1499.60 39.40 55 o
3 12 2 68.07 36.00 26.30 55 <
-3 -11 3 60.49 -14.40 26.20 55 <
-3 -10 3 18.47 -3.40 26.70 55 <
-2 -6 3 33.87 38.90 29.30 55 <
1 5 3 21.74 -0.10 35.70 55 <
2 9 3 37.03 25.90 27.40 55 <
3 12 3 141.61 31.20 27.20 55 <
-3 -10 4 126.85 75.20 26.90 55 <
-2 -6 4 39.43 -17.70 29.50 55 <
-1 -2 4 207.46 17.10 44.70 55 <
0 2 4 5652.40 7505.10 78.60 55 o
1 6 4 236.63 180.40 30.30 55 o
2 9 4 390.94 347.00 30.70 55 o
-3 -10 5 116.41 -6.40 26.70 55 <
-3 -9 5 10.35 56.40 26.70 55 <
-2 -5 5 124.58 21.70 31.00 55 <
1 6 5 112.88 90.50 30.30 55 <
2 10 5 57.70 44.80 27.20 55 <
-3 -9 6 130.03 131.70 27.70 55 o
-2 -5 6 2927.90 2544.40 47.30 55 o
-1 -1 6 4771.30 4767.60 62.50 55 o
0 3 6 1034.40 1280.60 45.10 55 o
1 7 6 352.05 393.00 31.80 55 o
2 10 6 32.47 26.30 26.60 55 <
-3 -8 7 83.82 122.40 27.80 55 o
-2 -4 7 90.12 53.10 31.10 55 <
1 7 7 253.46 241.70 30.70 55 o
2 11 7 34.28 -27.40 26.40 55 <
-3 -8 8 572.60 437.40 31.20 55 o
-2 -4 8 1042.90 845.00 37.00 55 o
1 8 8 1067.70 1006.00 35.50 55 o
2 11 8 3.78 42.50 26.00 55 <
-3 -7 9 985.48 819.50 35.80 55 o
-2 -3 9 100.63 105.50 30.40 55 o
1 8 9 32.41 46.50 27.80 55 <
2 11 9 6.81 -18.90 26.20 55 <
2 12 9 20.67 -10.30 25.80 55 <
-3 -7 10 21.04 57.50 27.00 55 <
-2 -3 10 84.75 150.50 30.10 55 o
-1 1 10 59.93 56.80 30.40 55 <
1 8 10 614.03 693.00 33.50 55 o
-4 -10 11 20.66 9.60 25.40 55 <
-3 -6 11 8.46 12.10 26.70 55 <
-2 -2 11 42.77 54.20 28.70 55 <
1 9 11 2.68 6.10 26.60 55 <
-3 -6 12 120.43 100.70 27.00 55 o
-2 -2 12 767.40 899.70 35.80 55 o
-1 2 12 886.79 1119.60 36.60 55 o
1 9 12 96.57 124.80 26.70 55 o
-3 -5 13 44.70 -55.20 26.90 55 <
-2 -1 13 8.07 20.20 28.10 55 <
1 10 13 1.46 9.30 26.00 55 <
-3 -5 14 654.55 454.20 30.90 55 o
-2 -1 14 1270.10 1802.40 41.20 55 o
-1 3 14 183.67 152.60 28.60 55 o
1 10 14 12.24 20.00 26.60 55 <
-3 -5 15 9.91 12.80 26.00 55 <
-3 -4 15 21.13 5.60 26.40 55 <
-2 0 15 72.35 25.70 26.90 55 <
-1 3 15 159.26 183.60 28.10 55 o
-3 -4 16 13.14 34.60 26.00 55 <
-2 0 16 160.74 145.90 27.70 55 o
-1 4 16 70.85 28.50 26.80 55 <
-3 -4 17 58.44 19.20 26.20 55 <
-3 -3 17 3.51 -4.10 25.80 55 <
-2 0 17 11.25 8.60 25.90 55 <
-2 1 17 8.01 -13.40 26.20 55 <
-1 4 17 7.67 19.80 26.30 55 <
-3 -3 18 9.35 0.70 25.80 55 <
-2 1 18 18.24 -29.50 25.60 55 <
-1 5 18 9.72 1.00 26.20 55 <
-3 -2 19 31.51 35.60 25.60 55 <
-2 1 19 1.70 -7.00 25.60 55 <
-1 5 19 1.44 44.80 25.40 55 <
2 -3 -19 16.61 30.20 28.40 56 <
1 -6 -18 31.70 -7.30 26.20 56 <
2 -3 -18 6.62 47.80 28.40 56 <
3 1 -18 28.10 7.30 28.30 56 <
1 -6 -17 1.67 25.00 25.80 56 <
2 -2 -17 60.61 3.60 29.20 56 <
3 1 -17 2.61 -34.60 28.40 56 <
1 -5 -16 75.17 63.60 26.50 56 <
2 -2 -16 338.50 380.10 32.50 56 o
3 2 -16 33.42 40.20 28.80 56 <
4 5 -16 14.79 23.10 27.70 56 <
1 -5 -15 10.35 64.40 26.30 56 <
2 -1 -15 1.18 7.80 30.20 56 <
3 2 -15 5.09 55.50 28.90 56 <
4 6 -15 2.80 -58.20 27.50 56 <
0 -8 -14 8.21 26.90 26.60 56 <
1 -4 -14 237.41 184.20 28.60 56 o
2 -1 -14 1808.90 2081.10 44.30 56 o
3 3 -14 41.65 52.30 29.90 56 <
4 6 -14 14.54 44.10 27.80 56 <
1 -4 -13 5.96 26.00 27.00 56 <
2 0 -13 43.58 83.60 29.90 56 <
4 7 -13 20.87 3.70 27.80 56 <
-1 -11 -12 1.88 -26.60 26.40 56 <
-1 -10 -12 16.24 0.60 26.00 56 <
1 -3 -12 764.80 749.20 34.70 56 o
3 4 -12 313.59 299.70 31.60 56 o
4 7 -12 30.84 26.90 28.00 56 <
-1 -10 -11 25.12 13.10 26.60 56 <
2 1 -11 4.44 -29.00 28.80 56 <
3 5 -11 65.75 72.70 29.70 56 <
4 8 -11 10.33 20.50 27.80 56 <
-1 -9 -10 311.71 274.40 29.90 56 o
1 -2 -10 784.15 986.30 36.40 56 o
2 2 -10 668.58 650.00 33.60 56 o
3 5 -10 147.03 87.70 30.60 56 <
4 9 -10 93.61 25.70 27.80 56 <
-2 -12 -9 15.44 36.00 26.50 56 <
-1 -9 -9 9.98 19.60 27.30 56 <
1 -1 -9 370.65 315.80 33.80 56 o
2 2 -9 68.51 48.80 29.30 56 <
3 6 -9 30.49 -8.40 29.80 56 <
4 9 -9 0.99 46.90 28.00 56 <
-2 -12 -8 11.69 -7.20 26.60 56 <
-1 -8 -8 632.16 765.90 34.20 56 o
1 -1 -8 36.86 43.60 34.00 56 <
2 3 -8 3839.20 3911.10 54.80 56 o
3 6 -8 14.48 88.40 30.30 56 <
4 10 -8 3.09 47.90 28.40 56 <
-2 -12 -7 52.11 13.30 26.50 56 <
-2 -11 -7 34.39 -7.90 27.00 56 <
-1 -8 -7 76.00 55.10 28.30 56 <
3 7 -7 556.16 357.80 33.60 56 o
4 10 -7 8.73 35.20 27.80 56 <
-2 -11 -6 25.39 10.10 27.20 56 <
-1 -7 -6 195.94 252.90 30.70 56 o
2 4 -6 2261.60 2129.10 45.20 56 o
3 7 -6 65.34 88.00 30.60 56 <
4 11 -6 41.46 2.20 27.70 56 <
-2 -10 -5 47.66 23.00 27.40 56 <
1 1 -5 352.77 273.40 43.50 56 o
3 8 -5 113.86 121.10 29.50 56 o
4 11 -5 31.76 22.60 27.90 56 <
-2 -10 -4 964.44 865.50 34.00 56 o
-1 -6 -4 32.17 63.60 29.90 56 <
2 5 -4 169.76 120.10 32.20 56 o
3 8 -4 16.12 -19.40 28.00 56 <
4 12 -4 15.65 7.50 27.90 56 <
-3 -13 -3 66.04 55.90 26.50 56 <
-2 -9 -3 19.47 81.10 27.20 56 <
1 2 -3 545.59 648.30 53.30 56 o
3 9 -3 53.08 5.50 27.80 56 <
4 12 -3 6.43 25.20 27.50 56 <
-3 -13 -2 18.20 32.10 26.10 56 <
-3 -12 -2 66.09 41.30 26.60 56 <
2 6 -2 357.09 338.80 30.80 56 o
3 9 -2 96.82 48.50 28.00 56 <
4 12 -2 117.09 34.30 28.00 56 <
-3 -12 -1 2.39 -12.00 26.40 56 <
-2 -8 -1 3.69 26.10 27.60 56 <
-1 -4 -1 2291.30 2133.70 53.00 56 o
1 3 -1 1251.50 998.00 53.60 56 o
3 10 -1 193.21 82.80 27.90 56 <
3 10 0 7.26 10.90 26.50 56 <
-3 -11 1 2.96 -9.30 26.10 56 <
-2 -7 1 6.77 34.10 28.60 56 <
-1 -3 1 1278.40 1280.80 56.60 56 o
1 4 1 1746.40 1778.20 50.60 56 o
3 11 1 1.31 27.50 26.00 56 <
-3 -10 2 126.08 95.90 27.20 56 o
-2 -6 2 260.83 236.30 31.10 56 o
0 1 2 905.67 1395.70 79.10 56 o
2 8 2 936.64 1036.30 35.80 56 o
3 11 2 7.21 2.20 26.20 56 <
-3 -10 3 8.08 21.60 26.60 56 <
-2 -6 3 29.69 60.60 28.80 56 <
-1 -2 3 577.26 813.00 55.50 56 o
1 5 3 16.83 -62.70 33.40 56 <
3 12 3 100.90 79.20 26.60 56 <
-3 -9 4 90.86 112.50 27.70 56 o
-2 -5 4 273.95 278.10 32.10 56 o
0 2 4 6429.00 7284.70 79.20 56 o
2 9 4 246.44 163.40 29.30 56 o
3 12 4 193.66 49.50 26.70 56 <
-4 -12 5 23.52 25.40 26.00 56 <
-3 -9 5 9.82 -14.90 26.60 56 <
-2 -5 5 84.18 41.90 29.90 56 <
-1 -1 5 345.08 354.00 42.60 56 o
1 6 5 33.78 7.00 30.20 56 <
2 9 5 370.15 218.10 29.90 56 o
-3 -8 6 297.19 296.40 29.70 56 o
-2 -4 6 2381.20 2512.70 47.50 56 o
0 3 6 1003.80 1182.90 45.40 56 o
2 10 6 26.61 35.60 26.50 56 <
-4 -11 7 3.91 -44.20 25.50 56 <
-3 -7 7 623.57 499.90 32.80 56 o
1 7 7 217.81 208.90 29.90 56 o
2 10 7 32.81 39.60 26.80 56 <
-4 -11 8 42.82 2.00 25.90 56 <
-3 -7 8 368.42 357.10 31.10 56 o
-2 -3 8 3645.10 3085.80 58.50 56 o
2 11 8 17.10 -19.80 26.00 56 <
-4 -10 9 13.09 15.90 25.60 56 <
-3 -6 9 35.79 47.30 27.50 56 <
-1 1 9 271.71 173.80 33.30 56 o
1 8 9 43.79 2.50 27.60 56 <
2 11 9 1.11 29.30 26.00 56 <
-4 -10 10 137.15 74.70 25.90 56 <
-3 -6 10 351.40 259.30 28.90 56 o
-2 -2 10 529.14 473.70 33.10 56 o
1 8 10 438.60 508.10 32.10 56 o
-4 -9 11 4.52 -24.80 25.80 56 <
-3 -5 11 60.59 45.20 27.60 56 <
-2 -2 11 58.03 -11.40 28.40 56 <
-1 2 11 97.09 117.80 29.60 56 o
1 9 11 1.12 77.40 26.10 56 <
-4 -9 12 3.69 -18.00 25.70 56 <
-3 -5 12 132.93 97.10 27.60 56 o
-2 -1 12 253.55 231.20 30.30 56 o
1 9 12 89.14 37.30 26.60 56 <
-4 -8 13 9.95 -2.70 25.70 56 <
-3 -4 13 29.58 12.60 26.90 56 <
-2 -1 13 24.36 38.00 27.50 56 <
-1 3 13 61.23 8.80 28.30 56 <
1 10 13 1.70 23.80 25.90 56 <
-4 -8 14 11.28 -18.00 25.50 56 <
-3 -4 14 46.84 9.50 26.10 56 <
-2 0 14 14.52 28.90 27.10 56 <
-1 3 14 103.53 101.80 27.80 56 o
1 10 14 6.36 31.30 26.20 56 <
-4 -7 15 3.91 15.20 25.80 56 <
-3 -3 15 204.63 110.70 28.00 56 o
-2 0 15 32.55 -50.20 27.30 56 <
-1 4 15 3.26 42.10 26.40 56 <
-3 -3 16 296.53 248.70 28.70 56 o
-2 1 16 668.34 552.90 31.40 56 o
-1 4 16 26.80 56.80 26.50 56 <
-3 -3 17 14.09 23.00 25.70 56 <
-3 -2 17 54.88 -16.30 26.00 56 <
-2 1 17 2.17 14.40 26.20 56 <
-1 5 17 1.41 -3.60 25.90 56 <
-3 -2 18 76.18 46.30 26.00 56 <
-2 2 18 18.15 0.20 25.90 56 <
-1 5 18 4.99 21.40 25.70 56 <
-3 -2 19 30.68 -44.90 25.60 56 <
-2 2 19 10.31 23.70 26.00 56 <
loop_
_reflns_scale_group_code
_reflns_scale_meas_intensity
1 778.370
2 866.245
3 970.803
4 947.205
5 924.838
6 897.589
7 975.746
11 866.068
12 752.953
13 1208.421
14 1193.586
15 1168.221
16 1189.627
17 1178.370
18 1215.053
19 1171.937
20 1231.583
21 1152.962
22 1213.125
23 1148.722
24 1266.722
25 1312.673
26 1280.155
27 1384.697
28 1365.417
29 1328.500
30 1355.586
31 1348.602
32 1336.528
33 1295.629
34 1305.545
35 1242.338
36 1270.009
37 1189.096
38 1294.112
39 1348.325
40 1342.245
41 1340.970
42 1276.759
43 1256.882
44 1255.606
45 1257.757
46 1244.464
47 1030.634
49 1109.975
50 1238.338
51 1175.202
52 1046.687
53 1077.962
54 1134.946
55 1033.027
56 935.622
loop_
_restr_distance_atom_site_label_1
_restr_distance_site_symmetry_1
_restr_distance_atom_site_label_2
_restr_distance_site_symmetry_2
_restr_distance_target
_restr_distance_target_weight_param
C5 . H1 . 1.09 0.005
C1 . H5 . 1.09 0.005
C2 . H4 . 1.09 0.005
C4 . H2 . 1.09 0.005
C8 . H7 . 1.09 0.005
C8 . H8 . 1.09 0.005
C8 . H9 . 1.09 0.005
O1 . H3 . 1.00 0.005
N1 . H6 . 1.04 0.005
loop_
_restr_angle_atom_site_label_1
_restr_angle_site_symmetry_1
_restr_angle_atom_site_label_2
_restr_angle_site_symmetry_2
_restr_angle_atom_site_label_3
_restr_angle_site_symmetry_3
_restr_angle_target
_restr_angle_target_weight_param
C6 . C1 . H5 . 120 0.5
C2 . C1 . H5 . 120 0.5
C6 . C5 . H1 . 120 0.5
C4 . C5 . H1 . 120 0.5
C3 . C2 . H4 . 120 0.5
C1 . C2 . H4 . 120 0.5
C3 . C4 . H2 . 120 0.5
C5 . C4 . H2 . 120 0.5
C7 . C8 . H7 . 109.47 0.5
C7 . C8 . H8 . 109.47 0.5
C7 . C8 . H9 . 109.47 0.5
H7 . C8 . H8 . 109.47 0.5
H7 . C8 . H9 . 109.47 0.5
H8 . C8 . H9 . 109.47 0.5
